* NGSPICE file created from spdif_to_i2s.ext - technology: sky130A

* Black-box entry subcircuit for sky130_fd_sc_hd__decap_8 abstract view
.subckt sky130_fd_sc_hd__decap_8 VGND VNB VPB VPWR
.ends

* Black-box entry subcircuit for sky130_fd_sc_hd__a21oi_1 abstract view
.subckt sky130_fd_sc_hd__a21oi_1 A1 A2 B1 VGND VNB VPB VPWR Y
.ends

* Black-box entry subcircuit for sky130_fd_sc_hd__o41ai_1 abstract view
.subckt sky130_fd_sc_hd__o41ai_1 A1 A2 A3 A4 B1 VGND VNB VPB VPWR Y
.ends

* Black-box entry subcircuit for sky130_fd_sc_hd__decap_4 abstract view
.subckt sky130_fd_sc_hd__decap_4 VGND VNB VPB VPWR
.ends

* Black-box entry subcircuit for sky130_fd_sc_hd__dlygate4sd3_1 abstract view
.subckt sky130_fd_sc_hd__dlygate4sd3_1 A VGND VNB VPB VPWR X
.ends

* Black-box entry subcircuit for sky130_fd_sc_hd__decap_12 abstract view
.subckt sky130_fd_sc_hd__decap_12 VGND VNB VPB VPWR
.ends

* Black-box entry subcircuit for sky130_fd_sc_hd__fill_1 abstract view
.subckt sky130_fd_sc_hd__fill_1 VGND VNB VPB VPWR
.ends

* Black-box entry subcircuit for sky130_fd_sc_hd__fill_2 abstract view
.subckt sky130_fd_sc_hd__fill_2 VGND VNB VPB VPWR
.ends

* Black-box entry subcircuit for sky130_fd_sc_hd__decap_3 abstract view
.subckt sky130_fd_sc_hd__decap_3 VGND VNB VPB VPWR
.ends

* Black-box entry subcircuit for sky130_fd_sc_hd__o21ai_0 abstract view
.subckt sky130_fd_sc_hd__o21ai_0 A1 A2 B1 VGND VNB VPB VPWR Y
.ends

* Black-box entry subcircuit for sky130_fd_sc_hd__o211a_1 abstract view
.subckt sky130_fd_sc_hd__o211a_1 A1 A2 B1 C1 VGND VNB VPB VPWR X
.ends

* Black-box entry subcircuit for sky130_fd_sc_hd__clkdlybuf4s50_1 abstract view
.subckt sky130_fd_sc_hd__clkdlybuf4s50_1 A VGND VNB VPB VPWR X
.ends

* Black-box entry subcircuit for sky130_fd_sc_hd__o22a_1 abstract view
.subckt sky130_fd_sc_hd__o22a_1 A1 A2 B1 B2 VGND VNB VPB VPWR X
.ends

* Black-box entry subcircuit for sky130_fd_sc_hd__maj3_1 abstract view
.subckt sky130_fd_sc_hd__maj3_1 A B C VGND VNB VPB VPWR X
.ends

* Black-box entry subcircuit for sky130_fd_sc_hd__dfrtp_1 abstract view
.subckt sky130_fd_sc_hd__dfrtp_1 CLK D RESET_B VGND VNB VPB VPWR Q
.ends

* Black-box entry subcircuit for sky130_fd_sc_hd__tapvpwrvgnd_1 abstract view
.subckt sky130_fd_sc_hd__tapvpwrvgnd_1 VGND VPWR
.ends

* Black-box entry subcircuit for sky130_fd_sc_hd__decap_6 abstract view
.subckt sky130_fd_sc_hd__decap_6 VGND VNB VPB VPWR
.ends

* Black-box entry subcircuit for sky130_fd_sc_hd__inv_1 abstract view
.subckt sky130_fd_sc_hd__inv_1 A VGND VNB VPB VPWR Y
.ends

* Black-box entry subcircuit for sky130_fd_sc_hd__xor2_1 abstract view
.subckt sky130_fd_sc_hd__xor2_1 A B VGND VNB VPB VPWR X
.ends

* Black-box entry subcircuit for sky130_fd_sc_hd__nand2_1 abstract view
.subckt sky130_fd_sc_hd__nand2_1 A B VGND VNB VPB VPWR Y
.ends

* Black-box entry subcircuit for sky130_fd_sc_hd__dfstp_2 abstract view
.subckt sky130_fd_sc_hd__dfstp_2 CLK D SET_B VGND VNB VPB VPWR Q
.ends

* Black-box entry subcircuit for sky130_fd_sc_hd__a21boi_0 abstract view
.subckt sky130_fd_sc_hd__a21boi_0 A1 A2 B1_N VGND VNB VPB VPWR Y
.ends

* Black-box entry subcircuit for sky130_fd_sc_hd__o32a_1 abstract view
.subckt sky130_fd_sc_hd__o32a_1 A1 A2 A3 B1 B2 VGND VNB VPB VPWR X
.ends

* Black-box entry subcircuit for sky130_fd_sc_hd__xnor2_1 abstract view
.subckt sky130_fd_sc_hd__xnor2_1 A B VGND VNB VPB VPWR Y
.ends

* Black-box entry subcircuit for sky130_fd_sc_hd__mux2_1 abstract view
.subckt sky130_fd_sc_hd__mux2_1 A0 A1 S VGND VNB VPB VPWR X
.ends

* Black-box entry subcircuit for sky130_fd_sc_hd__nor2_1 abstract view
.subckt sky130_fd_sc_hd__nor2_1 A B VGND VNB VPB VPWR Y
.ends

* Black-box entry subcircuit for sky130_fd_sc_hd__mux2i_1 abstract view
.subckt sky130_fd_sc_hd__mux2i_1 A0 A1 S VGND VNB VPB VPWR Y
.ends

* Black-box entry subcircuit for sky130_fd_sc_hd__nor3_1 abstract view
.subckt sky130_fd_sc_hd__nor3_1 A B C VGND VNB VPB VPWR Y
.ends

* Black-box entry subcircuit for sky130_fd_sc_hd__nor4_1 abstract view
.subckt sky130_fd_sc_hd__nor4_1 A B C D VGND VNB VPB VPWR Y
.ends

* Black-box entry subcircuit for sky130_fd_sc_hd__nand3_1 abstract view
.subckt sky130_fd_sc_hd__nand3_1 A B C VGND VNB VPB VPWR Y
.ends

* Black-box entry subcircuit for sky130_fd_sc_hd__a22o_1 abstract view
.subckt sky130_fd_sc_hd__a22o_1 A1 A2 B1 B2 VGND VNB VPB VPWR X
.ends

* Black-box entry subcircuit for sky130_fd_sc_hd__dfrtp_2 abstract view
.subckt sky130_fd_sc_hd__dfrtp_2 CLK D RESET_B VGND VNB VPB VPWR Q
.ends

* Black-box entry subcircuit for sky130_fd_sc_hd__a211oi_1 abstract view
.subckt sky130_fd_sc_hd__a211oi_1 A1 A2 B1 C1 VGND VNB VPB VPWR Y
.ends

* Black-box entry subcircuit for sky130_fd_sc_hd__a41oi_1 abstract view
.subckt sky130_fd_sc_hd__a41oi_1 A1 A2 A3 A4 B1 VGND VNB VPB VPWR Y
.ends

* Black-box entry subcircuit for sky130_fd_sc_hd__clkbuf_4 abstract view
.subckt sky130_fd_sc_hd__clkbuf_4 A VGND VNB VPB VPWR X
.ends

* Black-box entry subcircuit for sky130_fd_sc_hd__and2_0 abstract view
.subckt sky130_fd_sc_hd__and2_0 A B VGND VNB VPB VPWR X
.ends

* Black-box entry subcircuit for sky130_fd_sc_hd__and3_1 abstract view
.subckt sky130_fd_sc_hd__and3_1 A B C VGND VNB VPB VPWR X
.ends

* Black-box entry subcircuit for sky130_fd_sc_hd__o21ai_1 abstract view
.subckt sky130_fd_sc_hd__o21ai_1 A1 A2 B1 VGND VNB VPB VPWR Y
.ends

* Black-box entry subcircuit for sky130_fd_sc_hd__o31ai_1 abstract view
.subckt sky130_fd_sc_hd__o31ai_1 A1 A2 A3 B1 VGND VNB VPB VPWR Y
.ends

* Black-box entry subcircuit for sky130_fd_sc_hd__o22ai_1 abstract view
.subckt sky130_fd_sc_hd__o22ai_1 A1 A2 B1 B2 VGND VNB VPB VPWR Y
.ends

* Black-box entry subcircuit for sky130_fd_sc_hd__a32o_1 abstract view
.subckt sky130_fd_sc_hd__a32o_1 A1 A2 A3 B1 B2 VGND VNB VPB VPWR X
.ends

* Black-box entry subcircuit for sky130_fd_sc_hd__o311ai_1 abstract view
.subckt sky130_fd_sc_hd__o311ai_1 A1 A2 A3 B1 C1 VGND VNB VPB VPWR Y
.ends

* Black-box entry subcircuit for sky130_fd_sc_hd__a22oi_1 abstract view
.subckt sky130_fd_sc_hd__a22oi_1 A1 A2 B1 B2 VGND VNB VPB VPWR Y
.ends

* Black-box entry subcircuit for sky130_fd_sc_hd__nor2b_1 abstract view
.subckt sky130_fd_sc_hd__nor2b_1 A B_N VGND VNB VPB VPWR Y
.ends

* Black-box entry subcircuit for sky130_fd_sc_hd__a221oi_1 abstract view
.subckt sky130_fd_sc_hd__a221oi_1 A1 A2 B1 B2 C1 VGND VNB VPB VPWR Y
.ends

* Black-box entry subcircuit for sky130_fd_sc_hd__a31oi_1 abstract view
.subckt sky130_fd_sc_hd__a31oi_1 A1 A2 A3 B1 VGND VNB VPB VPWR Y
.ends

* Black-box entry subcircuit for sky130_fd_sc_hd__buf_4 abstract view
.subckt sky130_fd_sc_hd__buf_4 A VGND VNB VPB VPWR X
.ends

* Black-box entry subcircuit for sky130_fd_sc_hd__a21o_1 abstract view
.subckt sky130_fd_sc_hd__a21o_1 A1 A2 B1 VGND VNB VPB VPWR X
.ends

* Black-box entry subcircuit for sky130_fd_sc_hd__or4_1 abstract view
.subckt sky130_fd_sc_hd__or4_1 A B C D VGND VNB VPB VPWR X
.ends

* Black-box entry subcircuit for sky130_fd_sc_hd__o2bb2ai_1 abstract view
.subckt sky130_fd_sc_hd__o2bb2ai_1 A1_N A2_N B1 B2 VGND VNB VPB VPWR Y
.ends

* Black-box entry subcircuit for sky130_fd_sc_hd__and3b_1 abstract view
.subckt sky130_fd_sc_hd__and3b_1 A_N B C VGND VNB VPB VPWR X
.ends

* Black-box entry subcircuit for sky130_fd_sc_hd__clkbuf_16 abstract view
.subckt sky130_fd_sc_hd__clkbuf_16 A VGND VNB VPB VPWR X
.ends

* Black-box entry subcircuit for sky130_fd_sc_hd__a311oi_1 abstract view
.subckt sky130_fd_sc_hd__a311oi_1 A1 A2 A3 B1 C1 VGND VNB VPB VPWR Y
.ends

* Black-box entry subcircuit for sky130_fd_sc_hd__xor3_1 abstract view
.subckt sky130_fd_sc_hd__xor3_1 A B C VGND VNB VPB VPWR X
.ends

* Black-box entry subcircuit for sky130_fd_sc_hd__a31o_1 abstract view
.subckt sky130_fd_sc_hd__a31o_1 A1 A2 A3 B1 VGND VNB VPB VPWR X
.ends

* Black-box entry subcircuit for sky130_fd_sc_hd__clkbuf_1 abstract view
.subckt sky130_fd_sc_hd__clkbuf_1 A VGND VNB VPB VPWR X
.ends

* Black-box entry subcircuit for sky130_fd_sc_hd__nand4_1 abstract view
.subckt sky130_fd_sc_hd__nand4_1 A B C D VGND VNB VPB VPWR Y
.ends

* Black-box entry subcircuit for sky130_fd_sc_hd__o221ai_1 abstract view
.subckt sky130_fd_sc_hd__o221ai_1 A1 A2 B1 B2 C1 VGND VNB VPB VPWR Y
.ends

* Black-box entry subcircuit for sky130_fd_sc_hd__or2_0 abstract view
.subckt sky130_fd_sc_hd__or2_0 A B VGND VNB VPB VPWR X
.ends

* Black-box entry subcircuit for sky130_fd_sc_hd__clkinvlp_4 abstract view
.subckt sky130_fd_sc_hd__clkinvlp_4 A VGND VNB VPB VPWR Y
.ends

* Black-box entry subcircuit for sky130_fd_sc_hd__o21a_1 abstract view
.subckt sky130_fd_sc_hd__o21a_1 A1 A2 B1 VGND VNB VPB VPWR X
.ends

* Black-box entry subcircuit for sky130_fd_sc_hd__nand2b_1 abstract view
.subckt sky130_fd_sc_hd__nand2b_1 A_N B VGND VNB VPB VPWR Y
.ends

* Black-box entry subcircuit for sky130_fd_sc_hd__clkbuf_8 abstract view
.subckt sky130_fd_sc_hd__clkbuf_8 A VGND VNB VPB VPWR X
.ends

* Black-box entry subcircuit for sky130_fd_sc_hd__o31a_1 abstract view
.subckt sky130_fd_sc_hd__o31a_1 A1 A2 A3 B1 VGND VNB VPB VPWR X
.ends

* Black-box entry subcircuit for sky130_fd_sc_hd__a2bb2oi_1 abstract view
.subckt sky130_fd_sc_hd__a2bb2oi_1 A1_N A2_N B1 B2 VGND VNB VPB VPWR Y
.ends

* Black-box entry subcircuit for sky130_fd_sc_hd__bufinv_16 abstract view
.subckt sky130_fd_sc_hd__bufinv_16 A VGND VNB VPB VPWR Y
.ends

* Black-box entry subcircuit for sky130_fd_sc_hd__clkdlybuf4s25_1 abstract view
.subckt sky130_fd_sc_hd__clkdlybuf4s25_1 A VGND VNB VPB VPWR X
.ends

* Black-box entry subcircuit for sky130_fd_sc_hd__o21bai_1 abstract view
.subckt sky130_fd_sc_hd__o21bai_1 A1 A2 B1_N VGND VNB VPB VPWR Y
.ends

* Black-box entry subcircuit for sky130_fd_sc_hd__inv_4 abstract view
.subckt sky130_fd_sc_hd__inv_4 A VGND VNB VPB VPWR Y
.ends

* Black-box entry subcircuit for sky130_fd_sc_hd__inv_12 abstract view
.subckt sky130_fd_sc_hd__inv_12 A VGND VNB VPB VPWR Y
.ends

* Black-box entry subcircuit for sky130_fd_sc_hd__buf_1 abstract view
.subckt sky130_fd_sc_hd__buf_1 A VGND VNB VPB VPWR X
.ends

* Black-box entry subcircuit for sky130_fd_sc_hd__o2111a_1 abstract view
.subckt sky130_fd_sc_hd__o2111a_1 A1 A2 B1 C1 D1 VGND VNB VPB VPWR X
.ends

* Black-box entry subcircuit for sky130_fd_sc_hd__a211o_1 abstract view
.subckt sky130_fd_sc_hd__a211o_1 A1 A2 B1 C1 VGND VNB VPB VPWR X
.ends

* Black-box entry subcircuit for sky130_fd_sc_hd__or3_1 abstract view
.subckt sky130_fd_sc_hd__or3_1 A B C VGND VNB VPB VPWR X
.ends

* Black-box entry subcircuit for sky130_fd_sc_hd__o2111ai_1 abstract view
.subckt sky130_fd_sc_hd__o2111ai_1 A1 A2 B1 C1 D1 VGND VNB VPB VPWR Y
.ends

* Black-box entry subcircuit for sky130_fd_sc_hd__clkbuf_2 abstract view
.subckt sky130_fd_sc_hd__clkbuf_2 A VGND VNB VPB VPWR X
.ends

* Black-box entry subcircuit for sky130_fd_sc_hd__o21ba_1 abstract view
.subckt sky130_fd_sc_hd__o21ba_1 A1 A2 B1_N VGND VNB VPB VPWR X
.ends

* Black-box entry subcircuit for sky130_fd_sc_hd__nand4b_1 abstract view
.subckt sky130_fd_sc_hd__nand4b_1 A_N B C D VGND VNB VPB VPWR Y
.ends

* Black-box entry subcircuit for sky130_fd_sc_hd__o41ai_2 abstract view
.subckt sky130_fd_sc_hd__o41ai_2 A1 A2 A3 A4 B1 VGND VNB VPB VPWR Y
.ends

* Black-box entry subcircuit for sky130_fd_sc_hd__o211ai_1 abstract view
.subckt sky130_fd_sc_hd__o211ai_1 A1 A2 B1 C1 VGND VNB VPB VPWR Y
.ends

* Black-box entry subcircuit for sky130_fd_sc_hd__nand3b_1 abstract view
.subckt sky130_fd_sc_hd__nand3b_1 A_N B C VGND VNB VPB VPWR Y
.ends

* Black-box entry subcircuit for sky130_fd_sc_hd__o41a_1 abstract view
.subckt sky130_fd_sc_hd__o41a_1 A1 A2 A3 A4 B1 VGND VNB VPB VPWR X
.ends

* Black-box entry subcircuit for sky130_fd_sc_hd__o32ai_1 abstract view
.subckt sky130_fd_sc_hd__o32ai_1 A1 A2 A3 B1 B2 VGND VNB VPB VPWR Y
.ends

* Black-box entry subcircuit for sky130_fd_sc_hd__a211oi_2 abstract view
.subckt sky130_fd_sc_hd__a211oi_2 A1 A2 B1 C1 VGND VNB VPB VPWR Y
.ends

* Black-box entry subcircuit for sky130_fd_sc_hd__a221o_1 abstract view
.subckt sky130_fd_sc_hd__a221o_1 A1 A2 B1 B2 C1 VGND VNB VPB VPWR X
.ends

* Black-box entry subcircuit for sky130_fd_sc_hd__nor4_2 abstract view
.subckt sky130_fd_sc_hd__nor4_2 A B C D VGND VNB VPB VPWR Y
.ends

* Black-box entry subcircuit for sky130_fd_sc_hd__a32oi_1 abstract view
.subckt sky130_fd_sc_hd__a32oi_1 A1 A2 A3 B1 B2 VGND VNB VPB VPWR Y
.ends

* Black-box entry subcircuit for sky130_fd_sc_hd__a311o_1 abstract view
.subckt sky130_fd_sc_hd__a311o_1 A1 A2 A3 B1 C1 VGND VNB VPB VPWR X
.ends

* Black-box entry subcircuit for sky130_fd_sc_hd__a2111oi_0 abstract view
.subckt sky130_fd_sc_hd__a2111oi_0 A1 A2 B1 C1 D1 VGND VNB VPB VPWR Y
.ends

* Black-box entry subcircuit for sky130_fd_sc_hd__buf_2 abstract view
.subckt sky130_fd_sc_hd__buf_2 A VGND VNB VPB VPWR X
.ends

* Black-box entry subcircuit for sky130_fd_sc_hd__a222oi_1 abstract view
.subckt sky130_fd_sc_hd__a222oi_1 A1 A2 B1 B2 C1 C2 VGND VNB VPB VPWR Y
.ends

.subckt spdif_to_i2s VGND VPWR block_start clk i2s_bclk i2s_sd i2s_ws locked mute
+ pwm_out rst_n spdif_in
XFILLER_39_266 VGND VGND VPWR VPWR sky130_fd_sc_hd__decap_8
X_2037_ _1225_/Y _2036_/B _2036_/Y VGND VGND VPWR VPWR _2600_/D sky130_fd_sc_hd__a21oi_1
X_2106_ _2414_/Q _2415_/Q _2114_/C _2102_/D hold378/X VGND VGND VPWR VPWR _2106_/Y
+ sky130_fd_sc_hd__o41ai_1
XFILLER_52_29 VGND VGND VPWR VPWR sky130_fd_sc_hd__decap_8
XFILLER_22_188 VGND VGND VPWR VPWR sky130_fd_sc_hd__decap_4
Xhold362 _1826_/Y VGND VGND VPWR VPWR _1827_/B sky130_fd_sc_hd__dlygate4sd3_1
Xhold340 _2501_/Q VGND VGND VPWR VPWR _1806_/A sky130_fd_sc_hd__dlygate4sd3_1
Xhold351 _2487_/Q VGND VGND VPWR VPWR _1708_/A sky130_fd_sc_hd__dlygate4sd3_1
Xhold384 _2522_/Q VGND VGND VPWR VPWR hold384/X sky130_fd_sc_hd__dlygate4sd3_1
Xhold373 _2390_/Q VGND VGND VPWR VPWR hold373/X sky130_fd_sc_hd__dlygate4sd3_1
XFILLER_45_225 VGND VGND VPWR VPWR sky130_fd_sc_hd__decap_12
XFILLER_26_85 VGND VGND VPWR VPWR sky130_fd_sc_hd__fill_1
XFILLER_3_23 VGND VGND VPWR VPWR sky130_fd_sc_hd__fill_2
XFILLER_36_236 VGND VGND VPWR VPWR sky130_fd_sc_hd__decap_3
X_1270_ _1472_/A _1275_/B _1266_/Y VGND VGND VPWR VPWR _1274_/A sky130_fd_sc_hd__o21ai_0
X_1606_ _2101_/A _2078_/A2 _2080_/C _1605_/Y VGND VGND VPWR VPWR _1606_/X sky130_fd_sc_hd__o211a_1
Xfanout116 _2434_/Q VGND VGND VPWR VPWR _2316_/A sky130_fd_sc_hd__clkdlybuf4s50_1
X_1537_ _2632_/Q _1487_/Y _1535_/Y _1536_/X VGND VGND VPWR VPWR _1537_/X sky130_fd_sc_hd__o22a_1
X_1468_ _1374_/A _1374_/B _2373_/B VGND VGND VPWR VPWR _2615_/D sky130_fd_sc_hd__a21oi_1
X_1399_ _2242_/A _2257_/B wire38/X VGND VGND VPWR VPWR _1442_/C sky130_fd_sc_hd__maj3_1
X_2586_ clkload9/A _2586_/D load_slew168/X VGND VGND VPWR VPWR _2586_/Q sky130_fd_sc_hd__dfrtp_1
Xfanout149 fanout151/X VGND VGND VPWR VPWR fanout149/X sky130_fd_sc_hd__clkdlybuf4s50_1
Xfanout138 fanout142/X VGND VGND VPWR VPWR fanout138/X sky130_fd_sc_hd__clkdlybuf4s50_1
Xfanout127 _2230_/B VGND VGND VPWR VPWR _2201_/A sky130_fd_sc_hd__clkdlybuf4s50_1
Xfanout105 _2479_/Q VGND VGND VPWR VPWR _2231_/A sky130_fd_sc_hd__clkdlybuf4s50_1
XPHY_EDGE_ROW_19_Left_83 VGND VGND VPWR VPWR sky130_fd_sc_hd__decap_3
XFILLER_27_203 VGND VGND VPWR VPWR sky130_fd_sc_hd__fill_1
XFILLER_27_225 VGND VGND VPWR VPWR sky130_fd_sc_hd__fill_2
XFILLER_27_269 VGND VGND VPWR VPWR sky130_fd_sc_hd__decap_8
XFILLER_10_169 VGND VGND VPWR VPWR sky130_fd_sc_hd__fill_1
Xhold192 _2612_/Q VGND VGND VPWR VPWR _2613_/D sky130_fd_sc_hd__dlygate4sd3_1
XFILLER_12_98 VGND VGND VPWR VPWR sky130_fd_sc_hd__fill_1
XTAP_TAPCELL_ROW_5_162 VGND VPWR sky130_fd_sc_hd__tapvpwrvgnd_1
XFILLER_18_236 VGND VGND VPWR VPWR sky130_fd_sc_hd__decap_6
XFILLER_18_258 VGND VGND VPWR VPWR sky130_fd_sc_hd__fill_2
XTAP_TAPCELL_ROW_28_275 VGND VPWR sky130_fd_sc_hd__tapvpwrvgnd_1
X_2440_ _2609_/CLK _2440_/D _2421_/SET_B VGND VGND VPWR VPWR _2440_/Q sky130_fd_sc_hd__dfrtp_1
X_1253_ _2501_/Q VGND VGND VPWR VPWR _1814_/A sky130_fd_sc_hd__inv_1
X_2371_ _2440_/Q _2439_/Q VGND VGND VPWR VPWR _2371_/X sky130_fd_sc_hd__xor2_1
X_1322_ _2231_/A _1322_/B VGND VGND VPWR VPWR _1322_/Y sky130_fd_sc_hd__nand2_1
XTAP_TAPCELL_ROW_19_231 VGND VPWR sky130_fd_sc_hd__tapvpwrvgnd_1
XFILLER_32_272 VGND VGND VPWR VPWR sky130_fd_sc_hd__decap_12
XFILLER_32_250 VGND VGND VPWR VPWR sky130_fd_sc_hd__fill_2
X_2569_ clkload5/A _2569_/D fanout143/A VGND VGND VPWR VPWR _2569_/Q sky130_fd_sc_hd__dfrtp_1
XFILLER_59_169 VGND VGND VPWR VPWR sky130_fd_sc_hd__decap_6
XTAP_TAPCELL_ROW_2_143 VGND VPWR sky130_fd_sc_hd__tapvpwrvgnd_1
XPHY_EDGE_ROW_4_Left_68 VGND VGND VPWR VPWR sky130_fd_sc_hd__decap_3
XFILLER_17_9 VGND VGND VPWR VPWR sky130_fd_sc_hd__fill_1
X_1940_ _1942_/B _1938_/Y _1939_/Y VGND VGND VPWR VPWR _1940_/Y sky130_fd_sc_hd__o21ai_0
X_1871_ _1936_/B _1869_/Y _1870_/Y VGND VGND VPWR VPWR _2523_/D sky130_fd_sc_hd__o21ai_0
XFILLER_50_3 VGND VGND VPWR VPWR sky130_fd_sc_hd__decap_8
X_2423_ clkload4/A _2423_/D _2423_/SET_B VGND VGND VPWR VPWR _2423_/Q sky130_fd_sc_hd__dfstp_2
X_2354_ _2348_/A _2350_/B _2348_/B VGND VGND VPWR VPWR _2356_/B sky130_fd_sc_hd__a21boi_0
X_2285_ fanout3/X _2271_/Y _2284_/Y _2285_/B1 _2283_/A VGND VGND VPWR VPWR _2431_/D
+ sky130_fd_sc_hd__o32a_1
X_1236_ _2448_/Q VGND VGND VPWR VPWR _1236_/Y sky130_fd_sc_hd__inv_1
X_1305_ _1305_/A _1305_/B VGND VGND VPWR VPWR _1305_/Y sky130_fd_sc_hd__xnor2_1
XTAP_TAPCELL_ROW_47_370 VGND VPWR sky130_fd_sc_hd__tapvpwrvgnd_1
XFILLER_60_29 VGND VGND VPWR VPWR sky130_fd_sc_hd__fill_2
XFILLER_20_253 VGND VGND VPWR VPWR sky130_fd_sc_hd__decap_12
XFILLER_20_286 VGND VGND VPWR VPWR sky130_fd_sc_hd__decap_3
XFILLER_11_231 VGND VGND VPWR VPWR sky130_fd_sc_hd__fill_1
XFILLER_11_286 VGND VGND VPWR VPWR sky130_fd_sc_hd__decap_3
XFILLER_59_60 VGND VGND VPWR VPWR sky130_fd_sc_hd__decap_3
X_2070_ _2460_/Q hold364/X _2071_/S VGND VGND VPWR VPWR _2402_/D sky130_fd_sc_hd__mux2_1
X_1785_ _1785_/A _2050_/B VGND VGND VPWR VPWR _1785_/Y sky130_fd_sc_hd__nor2_1
X_1854_ _2517_/Q _2591_/Q wire61/A VGND VGND VPWR VPWR _1854_/Y sky130_fd_sc_hd__mux2i_1
X_1923_ _2540_/Q hold252/X _1974_/S VGND VGND VPWR VPWR _1923_/Y sky130_fd_sc_hd__mux2i_1
X_2406_ _2634_/CLK _2406_/D fanout174/X VGND VGND VPWR VPWR _2406_/Q sky130_fd_sc_hd__dfrtp_1
X_2337_ _2321_/A _2323_/B _2320_/Y VGND VGND VPWR VPWR _2339_/B sky130_fd_sc_hd__o21ai_0
X_1219_ _2409_/Q VGND VGND VPWR VPWR _1219_/Y sky130_fd_sc_hd__inv_1
X_2199_ _2477_/Q _2200_/B VGND VGND VPWR VPWR _2199_/Y sky130_fd_sc_hd__nand2_1
X_2268_ _2284_/C1 _2256_/Y _1672_/B VGND VGND VPWR VPWR _2268_/Y sky130_fd_sc_hd__a21oi_1
XFILLER_52_175 VGND VGND VPWR VPWR sky130_fd_sc_hd__fill_1
XTAP_TAPCELL_ROW_50_387 VGND VPWR sky130_fd_sc_hd__tapvpwrvgnd_1
XPHY_EDGE_ROW_7_Left_71 VGND VGND VPWR VPWR sky130_fd_sc_hd__decap_3
XFILLER_6_45 VGND VGND VPWR VPWR sky130_fd_sc_hd__fill_1
X_1570_ _1573_/C _1570_/B _1977_/B VGND VGND VPWR VPWR _2619_/D sky130_fd_sc_hd__nor3_1
X_2122_ _2122_/A _2122_/B VGND VGND VPWR VPWR _2130_/C sky130_fd_sc_hd__nor2_1
X_2053_ _2443_/Q _1979_/A _2055_/S VGND VGND VPWR VPWR _2053_/X sky130_fd_sc_hd__mux2_1
XFILLER_13_3 VGND VGND VPWR VPWR sky130_fd_sc_hd__fill_2
XFILLER_19_183 VGND VGND VPWR VPWR sky130_fd_sc_hd__decap_4
X_1768_ _2119_/C _1768_/B VGND VGND VPWR VPWR _1770_/A sky130_fd_sc_hd__nor2_1
X_1837_ _1837_/A _1909_/B VGND VGND VPWR VPWR _1837_/Y sky130_fd_sc_hd__nand2_1
X_1906_ _1906_/A _1909_/B VGND VGND VPWR VPWR _1906_/Y sky130_fd_sc_hd__nand2_1
XFILLER_57_245 VGND VGND VPWR VPWR sky130_fd_sc_hd__fill_2
XFILLER_57_234 VGND VGND VPWR VPWR sky130_fd_sc_hd__decap_4
XFILLER_57_223 VGND VGND VPWR VPWR sky130_fd_sc_hd__fill_1
X_1699_ _2289_/A _1699_/B VGND VGND VPWR VPWR _1700_/B sky130_fd_sc_hd__nand2_1
XFILLER_57_267 VGND VGND VPWR VPWR sky130_fd_sc_hd__fill_2
XPHY_EDGE_ROW_33_Left_97 VGND VGND VPWR VPWR sky130_fd_sc_hd__decap_3
XFILLER_48_234 VGND VGND VPWR VPWR sky130_fd_sc_hd__decap_12
XFILLER_48_201 VGND VGND VPWR VPWR sky130_fd_sc_hd__fill_1
XTAP_TAPCELL_ROW_61_438 VGND VPWR sky130_fd_sc_hd__tapvpwrvgnd_1
XFILLER_31_167 VGND VGND VPWR VPWR sky130_fd_sc_hd__fill_1
XFILLER_16_197 VGND VGND VPWR VPWR sky130_fd_sc_hd__fill_1
X_1622_ _1230_/Y _1621_/Y _1626_/S VGND VGND VPWR VPWR _2454_/D sky130_fd_sc_hd__mux2i_1
X_1484_ _2327_/A _1484_/B VGND VGND VPWR VPWR _1530_/B sky130_fd_sc_hd__nand2_1
X_1553_ _1671_/A _1671_/B _2484_/Q _2483_/Q VGND VGND VPWR VPWR _1556_/B sky130_fd_sc_hd__nor4_1
XFILLER_39_223 VGND VGND VPWR VPWR sky130_fd_sc_hd__fill_1
X_2036_ _2036_/A _2036_/B VGND VGND VPWR VPWR _2036_/Y sky130_fd_sc_hd__nor2_1
X_2105_ _2105_/A _2108_/B _2108_/C VGND VGND VPWR VPWR _2105_/Y sky130_fd_sc_hd__nand3_1
Xhold352 _2506_/Q VGND VGND VPWR VPWR _1825_/A sky130_fd_sc_hd__dlygate4sd3_1
Xhold341 _2494_/Q VGND VGND VPWR VPWR _1259_/A sky130_fd_sc_hd__dlygate4sd3_1
Xhold330 _2607_/Q VGND VGND VPWR VPWR _2050_/A sky130_fd_sc_hd__dlygate4sd3_1
Xhold363 _2560_/Q VGND VGND VPWR VPWR _1978_/A sky130_fd_sc_hd__dlygate4sd3_1
Xhold374 _2386_/Q VGND VGND VPWR VPWR hold374/X sky130_fd_sc_hd__dlygate4sd3_1
Xhold385 _2588_/Q VGND VGND VPWR VPWR hold385/X sky130_fd_sc_hd__dlygate4sd3_1
XFILLER_45_204 VGND VGND VPWR VPWR sky130_fd_sc_hd__fill_2
XFILLER_60_218 VGND VGND VPWR VPWR sky130_fd_sc_hd__decap_4
XFILLER_53_281 VGND VGND VPWR VPWR sky130_fd_sc_hd__decap_8
XFILLER_45_237 VGND VGND VPWR VPWR sky130_fd_sc_hd__decap_8
XFILLER_13_167 VGND VGND VPWR VPWR sky130_fd_sc_hd__fill_1
XFILLER_13_189 VGND VGND VPWR VPWR sky130_fd_sc_hd__fill_1
X_1536_ _2632_/Q _1487_/Y _1488_/Y _2631_/Q VGND VGND VPWR VPWR _1536_/X sky130_fd_sc_hd__a22o_1
X_2585_ clkload8/A _2585_/D load_slew170/X VGND VGND VPWR VPWR _2585_/Q sky130_fd_sc_hd__dfrtp_1
X_1605_ _2082_/A _2412_/Q _2413_/Q VGND VGND VPWR VPWR _1605_/Y sky130_fd_sc_hd__nand3_1
Xfanout106 _1470_/B VGND VGND VPWR VPWR _2331_/B sky130_fd_sc_hd__clkdlybuf4s50_1
Xfanout117 _2257_/A VGND VGND VPWR VPWR _2305_/B sky130_fd_sc_hd__clkdlybuf4s50_1
X_1467_ _1467_/A _1467_/B VGND VGND VPWR VPWR _2373_/B sky130_fd_sc_hd__nand2_1
X_1398_ _2242_/A _2257_/B VGND VGND VPWR VPWR _1422_/B sky130_fd_sc_hd__xor2_1
Xfanout128 _2428_/Q VGND VGND VPWR VPWR _2230_/B sky130_fd_sc_hd__clkdlybuf4s50_1
X_2019_ _1234_/Y _2018_/B _2018_/Y VGND VGND VPWR VPWR _2591_/D sky130_fd_sc_hd__a21oi_1
XFILLER_50_284 VGND VGND VPWR VPWR sky130_fd_sc_hd__decap_4
Xhold193 _2502_/Q VGND VGND VPWR VPWR _1807_/A sky130_fd_sc_hd__dlygate4sd3_1
XFILLER_41_240 VGND VGND VPWR VPWR sky130_fd_sc_hd__decap_8
XTAP_TAPCELL_ROW_28_276 VGND VPWR sky130_fd_sc_hd__tapvpwrvgnd_1
X_1252_ _2500_/Q VGND VGND VPWR VPWR _1813_/A sky130_fd_sc_hd__inv_1
X_1321_ _1692_/A _1321_/B VGND VGND VPWR VPWR _1321_/Y sky130_fd_sc_hd__nor2_1
X_2370_ _1467_/A _2368_/Y _2369_/Y _2439_/Q VGND VGND VPWR VPWR _2439_/D sky130_fd_sc_hd__a22o_1
XPHY_EDGE_ROW_20_Left_84 VGND VGND VPWR VPWR sky130_fd_sc_hd__decap_3
XTAP_TAPCELL_ROW_19_232 VGND VPWR sky130_fd_sc_hd__tapvpwrvgnd_1
XFILLER_32_284 VGND VGND VPWR VPWR sky130_fd_sc_hd__decap_4
X_2499_ _2634_/CLK _2499_/D load_slew177/X VGND VGND VPWR VPWR _2499_/Q sky130_fd_sc_hd__dfrtp_1
X_1519_ _1519_/A _1523_/A VGND VGND VPWR VPWR _1519_/Y sky130_fd_sc_hd__nor2_1
X_2568_ clkload5/A _2568_/D fanout143/X VGND VGND VPWR VPWR _2568_/Q sky130_fd_sc_hd__dfrtp_1
XPHY_EDGE_ROW_12_Right_12 VGND VGND VPWR VPWR sky130_fd_sc_hd__decap_3
XTAP_TAPCELL_ROW_2_144 VGND VPWR sky130_fd_sc_hd__tapvpwrvgnd_1
XPHY_EDGE_ROW_21_Right_21 VGND VGND VPWR VPWR sky130_fd_sc_hd__decap_3
XPHY_EDGE_ROW_30_Right_30 VGND VGND VPWR VPWR sky130_fd_sc_hd__decap_3
XTAP_TAPCELL_ROW_16_213 VGND VPWR sky130_fd_sc_hd__tapvpwrvgnd_1
X_1870_ _1870_/A _1936_/B VGND VGND VPWR VPWR _1870_/Y sky130_fd_sc_hd__nand2_1
X_2353_ fanout3/X _2345_/Y _2352_/Y _2327_/B _2351_/A VGND VGND VPWR VPWR _2436_/D
+ sky130_fd_sc_hd__o32a_1
XFILLER_43_3 VGND VGND VPWR VPWR sky130_fd_sc_hd__decap_4
X_2422_ _2614_/CLK _2422_/D _2608_/SET_B VGND VGND VPWR VPWR locked sky130_fd_sc_hd__dfrtp_2
X_2284_ _2283_/B _2282_/X _2283_/Y _2284_/C1 VGND VGND VPWR VPWR _2284_/Y sky130_fd_sc_hd__a211oi_1
X_1235_ _2449_/Q VGND VGND VPWR VPWR _1235_/Y sky130_fd_sc_hd__inv_1
X_1304_ _1289_/A _1289_/B _1289_/C _1295_/A _1303_/Y VGND VGND VPWR VPWR _1305_/B
+ sky130_fd_sc_hd__a41oi_1
XFILLER_60_19 VGND VGND VPWR VPWR sky130_fd_sc_hd__fill_2
XTAP_TAPCELL_ROW_47_371 VGND VPWR sky130_fd_sc_hd__tapvpwrvgnd_1
X_1999_ hold277/X _2404_/Q _2001_/S VGND VGND VPWR VPWR _2579_/D sky130_fd_sc_hd__mux2_1
XFILLER_20_265 VGND VGND VPWR VPWR sky130_fd_sc_hd__decap_12
XFILLER_11_265 VGND VGND VPWR VPWR sky130_fd_sc_hd__fill_1
Xload_slew139 fanout138/X VGND VGND VPWR VPWR load_slew139/X sky130_fd_sc_hd__clkbuf_4
X_1922_ _1924_/B _1920_/Y _1921_/Y VGND VGND VPWR VPWR _1922_/Y sky130_fd_sc_hd__o21ai_0
X_1784_ _2050_/B _1782_/Y _1783_/Y VGND VGND VPWR VPWR _2492_/D sky130_fd_sc_hd__a21oi_1
Xfanout8 _2052_/Y VGND VGND VPWR VPWR _2055_/S sky130_fd_sc_hd__clkdlybuf4s50_1
X_1853_ _1942_/B _1851_/Y _1852_/Y VGND VGND VPWR VPWR _1853_/Y sky130_fd_sc_hd__o21ai_0
X_2336_ _2336_/A _2336_/B VGND VGND VPWR VPWR _2339_/A sky130_fd_sc_hd__xor2_1
X_2405_ _2634_/CLK _2405_/D fanout174/X VGND VGND VPWR VPWR _2405_/Q sky130_fd_sc_hd__dfrtp_1
X_2267_ _2430_/Q _2283_/B _2266_/Y VGND VGND VPWR VPWR _2267_/Y sky130_fd_sc_hd__o21ai_0
X_1218_ _2410_/Q VGND VGND VPWR VPWR _1218_/Y sky130_fd_sc_hd__inv_1
X_2198_ _2198_/A _2198_/B VGND VGND VPWR VPWR _2200_/B sky130_fd_sc_hd__xnor2_1
XFILLER_4_217 VGND VGND VPWR VPWR sky130_fd_sc_hd__decap_6
XPHY_EDGE_ROW_42_Left_106 VGND VGND VPWR VPWR sky130_fd_sc_hd__decap_3
XPHY_EDGE_ROW_51_Left_115 VGND VGND VPWR VPWR sky130_fd_sc_hd__decap_3
XFILLER_45_74 VGND VGND VPWR VPWR sky130_fd_sc_hd__fill_1
XPHY_EDGE_ROW_60_Left_124 VGND VGND VPWR VPWR sky130_fd_sc_hd__decap_3
XFILLER_34_110 VGND VGND VPWR VPWR sky130_fd_sc_hd__fill_1
X_2121_ _2121_/A _2121_/B _2121_/C VGND VGND VPWR VPWR _2122_/B sky130_fd_sc_hd__nand3_1
X_2052_ _2441_/Q _2052_/B _2052_/C VGND VGND VPWR VPWR _2052_/Y sky130_fd_sc_hd__nand3_1
X_1905_ _2534_/Q _2560_/Q _1905_/S VGND VGND VPWR VPWR _1905_/Y sky130_fd_sc_hd__mux2i_1
X_1767_ _2463_/Q _2405_/Q VGND VGND VPWR VPWR _1768_/B sky130_fd_sc_hd__and2_0
X_1836_ _2511_/Q _2585_/Q _1905_/S VGND VGND VPWR VPWR _1836_/Y sky130_fd_sc_hd__mux2i_1
X_1698_ _1671_/Y _1697_/Y _1707_/A VGND VGND VPWR VPWR _2482_/D sky130_fd_sc_hd__a21oi_1
XPHY_EDGE_ROW_6_Right_6 VGND VGND VPWR VPWR sky130_fd_sc_hd__decap_3
X_2319_ _2304_/Y _2306_/Y _2317_/X _2318_/Y VGND VGND VPWR VPWR _2321_/A sky130_fd_sc_hd__a211oi_1
XFILLER_57_279 VGND VGND VPWR VPWR sky130_fd_sc_hd__fill_1
XFILLER_0_231 VGND VGND VPWR VPWR sky130_fd_sc_hd__fill_1
XFILLER_0_253 VGND VGND VPWR VPWR sky130_fd_sc_hd__decap_6
XFILLER_48_246 VGND VGND VPWR VPWR sky130_fd_sc_hd__decap_6
XFILLER_48_213 VGND VGND VPWR VPWR sky130_fd_sc_hd__decap_8
XTAP_TAPCELL_ROW_61_439 VGND VPWR sky130_fd_sc_hd__tapvpwrvgnd_1
XPHY_EDGE_ROW_59_Right_59 VGND VGND VPWR VPWR sky130_fd_sc_hd__decap_3
XFILLER_31_157 VGND VGND VPWR VPWR sky130_fd_sc_hd__fill_2
XFILLER_16_187 VGND VGND VPWR VPWR sky130_fd_sc_hd__fill_2
X_1552_ _2275_/A _2481_/Q _2480_/Q _2231_/A VGND VGND VPWR VPWR _1556_/A sky130_fd_sc_hd__nor4_1
X_1621_ _1627_/A _2455_/Q VGND VGND VPWR VPWR _1621_/Y sky130_fd_sc_hd__nand2_1
X_1483_ _1485_/A _1523_/B VGND VGND VPWR VPWR _1530_/A sky130_fd_sc_hd__nand2_1
X_2104_ _2102_/X _2103_/Y _2110_/B1 VGND VGND VPWR VPWR _2415_/D sky130_fd_sc_hd__a21oi_1
X_2035_ _1226_/Y _2036_/B _2034_/Y VGND VGND VPWR VPWR _2599_/D sky130_fd_sc_hd__a21oi_1
XFILLER_30_190 VGND VGND VPWR VPWR sky130_fd_sc_hd__decap_6
XFILLER_22_179 VGND VGND VPWR VPWR sky130_fd_sc_hd__fill_1
X_1819_ _2506_/Q _2507_/Q _2633_/Q VGND VGND VPWR VPWR _1828_/B sky130_fd_sc_hd__and3_1
Xhold342 _2493_/Q VGND VGND VPWR VPWR _1785_/A sky130_fd_sc_hd__dlygate4sd3_1
Xhold331 _2492_/Q VGND VGND VPWR VPWR _1783_/A sky130_fd_sc_hd__dlygate4sd3_1
Xhold364 _2402_/Q VGND VGND VPWR VPWR hold364/X sky130_fd_sc_hd__dlygate4sd3_1
Xhold375 _2394_/Q VGND VGND VPWR VPWR hold375/X sky130_fd_sc_hd__dlygate4sd3_1
Xhold320 _1988_/X VGND VGND VPWR VPWR _2568_/D sky130_fd_sc_hd__dlygate4sd3_1
Xhold353 _2420_/Q VGND VGND VPWR VPWR hold353/X sky130_fd_sc_hd__dlygate4sd3_1
XFILLER_36_216 VGND VGND VPWR VPWR sky130_fd_sc_hd__decap_3
XFILLER_8_150 VGND VGND VPWR VPWR sky130_fd_sc_hd__decap_8
X_1535_ _1532_/Y _1534_/Y _1533_/Y VGND VGND VPWR VPWR _1535_/Y sky130_fd_sc_hd__a21oi_1
Xfanout107 _2438_/Q VGND VGND VPWR VPWR _1470_/B sky130_fd_sc_hd__clkdlybuf4s50_1
Xfanout118 _2433_/Q VGND VGND VPWR VPWR _2257_/A sky130_fd_sc_hd__clkdlybuf4s50_1
X_2584_ _2609_/CLK _2584_/D load_slew172/X VGND VGND VPWR VPWR _2584_/Q sky130_fd_sc_hd__dfrtp_1
X_1604_ _2609_/Q _1561_/B _1543_/Y VGND VGND VPWR VPWR _2375_/C sky130_fd_sc_hd__o21ai_1
XFILLER_8_194 VGND VGND VPWR VPWR sky130_fd_sc_hd__fill_2
Xfanout129 _2427_/Q VGND VGND VPWR VPWR _2176_/A sky130_fd_sc_hd__clkdlybuf4s50_1
X_1466_ _2440_/Q _1672_/B VGND VGND VPWR VPWR _1467_/B sky130_fd_sc_hd__nor2_1
X_1397_ _1383_/Y _1396_/A _1396_/B _1382_/Y VGND VGND VPWR VPWR wire38/A sky130_fd_sc_hd__o31ai_1
X_2018_ _2018_/A _2018_/B VGND VGND VPWR VPWR _2018_/Y sky130_fd_sc_hd__nor2_1
XFILLER_12_23 VGND VGND VPWR VPWR sky130_fd_sc_hd__decap_4
XFILLER_12_67 VGND VGND VPWR VPWR sky130_fd_sc_hd__decap_3
Xhold194 _2557_/Q VGND VGND VPWR VPWR _1972_/A sky130_fd_sc_hd__dlygate4sd3_1
XTAP_TAPCELL_ROW_28_277 VGND VPWR sky130_fd_sc_hd__tapvpwrvgnd_1
X_1320_ _1340_/C _1320_/B VGND VGND VPWR VPWR _1321_/B sky130_fd_sc_hd__xor2_1
XFILLER_5_164 VGND VGND VPWR VPWR sky130_fd_sc_hd__fill_1
XTAP_TAPCELL_ROW_11_188 VGND VPWR sky130_fd_sc_hd__tapvpwrvgnd_1
X_1251_ _2499_/Q VGND VGND VPWR VPWR _1812_/A sky130_fd_sc_hd__inv_1
X_2498_ _2634_/CLK _2498_/D load_slew177/X VGND VGND VPWR VPWR _2498_/Q sky130_fd_sc_hd__dfrtp_1
X_1449_ _2484_/Q _1416_/Y _1419_/Y _1448_/Y VGND VGND VPWR VPWR _1449_/Y sky130_fd_sc_hd__o22ai_1
X_1518_ _2625_/Q _1522_/A1 _1515_/Y _1517_/Y VGND VGND VPWR VPWR _1518_/Y sky130_fd_sc_hd__o31ai_1
X_2567_ clkload5/A _2567_/D fanout156/X VGND VGND VPWR VPWR _2567_/Q sky130_fd_sc_hd__dfrtp_1
XTAP_TAPCELL_ROW_2_145 VGND VPWR sky130_fd_sc_hd__tapvpwrvgnd_1
XFILLER_15_219 VGND VGND VPWR VPWR sky130_fd_sc_hd__decap_4
XFILLER_23_241 VGND VGND VPWR VPWR sky130_fd_sc_hd__fill_1
XFILLER_23_252 VGND VGND VPWR VPWR sky130_fd_sc_hd__decap_8