* NGSPICE file created from tt_um_spdif_to_i2s_kilpelaj.ext - technology: sky130A

.subckt sky130_fd_pr__res_xhigh_po_0p35_YS6JHV B R1 R2
X0 R1 R2 B sky130_fd_pr__res_xhigh_po_0p35 l=20
.ends

.subckt sky130_fd_pr__nfet_01v8_GT9DNQ B D0 G S1 a_229_n231#
X0 S1 G D0 B sky130_fd_pr__nfet_01v8 ad=0.29 pd=2.29 as=0.58 ps=4.58 w=2 l=1
X1 a_229_n231# G S1 B sky130_fd_pr__nfet_01v8 ad=0.58 pd=4.58 as=0.29 ps=2.29 w=2 l=1
.ends

.subckt sky130_fd_pr__pfet_01v8_99L4LZ B D0 G S1 D2 S3 a_159_n164#
X0 a_159_n164# G S3 B sky130_fd_pr__pfet_01v8 ad=0.62 pd=4.62 as=0.33 ps=2.33 w=2 l=0.15
X1 S3 G D2 B sky130_fd_pr__pfet_01v8 ad=0.33 pd=2.33 as=0.33 ps=2.33 w=2 l=0.15
X2 S1 G D0 B sky130_fd_pr__pfet_01v8 ad=0.33 pd=2.33 as=0.62 ps=4.62 w=2 l=0.15
X3 D2 G S1 B sky130_fd_pr__pfet_01v8 ad=0.33 pd=2.33 as=0.33 ps=2.33 w=2 l=0.15
.ends

.subckt sky130_fd_pr__nfet_01v8_U5JGNU B D0 G S1 a_69_n231#
X0 S1 G D0 B sky130_fd_pr__nfet_01v8 ad=0.29 pd=2.29 as=0.58 ps=4.58 w=2 l=0.2
X1 a_69_n231# G S1 B sky130_fd_pr__nfet_01v8 ad=0.58 pd=4.58 as=0.29 ps=2.29 w=2 l=0.2
.ends

.subckt sky130_fd_pr__nfet_01v8_8UCVU5 B D S G
X0 S G D B sky130_fd_pr__nfet_01v8 ad=0.58 pd=4.58 as=0.58 ps=4.58 w=2 l=1
.ends

.subckt sky130_fd_pr__nfet_01v8_ST42GL B D0 G S1 D2 S3 D4 S5 D6 S7 D8 S9 a_447_n231#
X0 S7 G D6 B sky130_fd_pr__nfet_01v8 ad=0.33 pd=2.33 as=0.33 ps=2.33 w=2 l=0.15
X1 S3 G D2 B sky130_fd_pr__nfet_01v8 ad=0.33 pd=2.33 as=0.33 ps=2.33 w=2 l=0.15
X2 a_447_n231# G S9 B sky130_fd_pr__nfet_01v8 ad=0.62 pd=4.62 as=0.33 ps=2.33 w=2 l=0.15
X3 D6 G S5 B sky130_fd_pr__nfet_01v8 ad=0.33 pd=2.33 as=0.33 ps=2.33 w=2 l=0.15
X4 D4 G S3 B sky130_fd_pr__nfet_01v8 ad=0.33 pd=2.33 as=0.33 ps=2.33 w=2 l=0.15
X5 S1 G D0 B sky130_fd_pr__nfet_01v8 ad=0.33 pd=2.33 as=0.62 ps=4.62 w=2 l=0.15
X6 S5 G D4 B sky130_fd_pr__nfet_01v8 ad=0.33 pd=2.33 as=0.33 ps=2.33 w=2 l=0.15
X7 S9 G D8 B sky130_fd_pr__nfet_01v8 ad=0.33 pd=2.33 as=0.33 ps=2.33 w=2 l=0.15
X8 D8 G S7 B sky130_fd_pr__nfet_01v8 ad=0.33 pd=2.33 as=0.33 ps=2.33 w=2 l=0.15
X9 D2 G S1 B sky130_fd_pr__nfet_01v8 ad=0.33 pd=2.33 as=0.33 ps=2.33 w=2 l=0.15
.ends

.subckt sky130_fd_pr__pfet_01v8_TPLPJ6 B D S G
X0 S G D B sky130_fd_pr__pfet_01v8 ad=0.58 pd=4.58 as=0.58 ps=4.58 w=2 l=0.15
.ends

.subckt sky130_fd_pr__nfet_01v8_DSPFQQ B D S G
X0 S G D B sky130_fd_pr__nfet_01v8 ad=0.29 pd=2.58 as=0.29 ps=2.58 w=1 l=0.15
.ends

.subckt sky130_fd_pr__pfet_01v8_U6MDYH B D0 G S1 D2 S3 D4 S5 a_745_n164#
X0 S3 G D2 B sky130_fd_pr__pfet_01v8 ad=0.29 pd=2.29 as=0.29 ps=2.29 w=2 l=1
X1 D4 G S3 B sky130_fd_pr__pfet_01v8 ad=0.29 pd=2.29 as=0.29 ps=2.29 w=2 l=1
X2 S1 G D0 B sky130_fd_pr__pfet_01v8 ad=0.29 pd=2.29 as=0.58 ps=4.58 w=2 l=1
X3 D2 G S1 B sky130_fd_pr__pfet_01v8 ad=0.29 pd=2.29 as=0.29 ps=2.29 w=2 l=1
X4 a_745_n164# G S5 B sky130_fd_pr__pfet_01v8 ad=0.58 pd=4.58 as=0.29 ps=2.29 w=2 l=1
X5 S5 G D4 B sky130_fd_pr__pfet_01v8 ad=0.29 pd=2.29 as=0.29 ps=2.29 w=2 l=1
.ends

.subckt sky130_fd_pr__pfet_01v8_S8FMYS B D0 G S1 a_229_n164#
X0 S1 G D0 B sky130_fd_pr__pfet_01v8 ad=0.29 pd=2.29 as=0.58 ps=4.58 w=2 l=1
X1 a_229_n164# G S1 B sky130_fd_pr__pfet_01v8 ad=0.58 pd=4.58 as=0.29 ps=2.29 w=2 l=1
.ends

.subckt sky130_fd_pr__pfet_01v8_E4RPCE B D0 G S1 D2 S3 D4 S5 a_745_n164#
X0 S3 G D2 B sky130_fd_pr__pfet_01v8 ad=0.29 pd=2.29 as=0.29 ps=2.29 w=2 l=1
X1 D4 G S3 B sky130_fd_pr__pfet_01v8 ad=0.29 pd=2.29 as=0.29 ps=2.29 w=2 l=1
X2 S1 G D0 B sky130_fd_pr__pfet_01v8 ad=0.29 pd=2.29 as=0.58 ps=4.58 w=2 l=1
X3 D2 G S1 B sky130_fd_pr__pfet_01v8 ad=0.29 pd=2.29 as=0.29 ps=2.29 w=2 l=1
X4 a_745_n164# G S5 B sky130_fd_pr__pfet_01v8 ad=0.58 pd=4.58 as=0.29 ps=2.29 w=2 l=1
X5 S5 G D4 B sky130_fd_pr__pfet_01v8 ad=0.29 pd=2.29 as=0.29 ps=2.29 w=2 l=1
.ends

.subckt sky130_fd_pr__pfet_01v8_QR4GC9 B D0 G S1 D2 S3 a_487_n164#
X0 D2 G S1 B sky130_fd_pr__pfet_01v8 ad=0.29 pd=2.29 as=0.29 ps=2.29 w=2 l=1
X1 S3 G D2 B sky130_fd_pr__pfet_01v8 ad=0.29 pd=2.29 as=0.29 ps=2.29 w=2 l=1
X2 S1 G D0 B sky130_fd_pr__pfet_01v8 ad=0.29 pd=2.29 as=0.58 ps=4.58 w=2 l=1
X3 a_487_n164# G S3 B sky130_fd_pr__pfet_01v8 ad=0.58 pd=4.58 as=0.29 ps=2.29 w=2 l=1
.ends

.subckt sky130_fd_sc_hd__decap_8 VGND VNB VPB VPWR
X0 VPWR VGND VPWR VPB sky130_fd_pr__pfet_01v8_hvt ad=0.2262 pd=2.26 as=0.4524 ps=4.52 w=0.87 l=2.89
X1 VGND VPWR VGND VNB sky130_fd_pr__nfet_01v8 ad=0.143 pd=1.62 as=0.286 ps=3.24 w=0.55 l=2.89
.ends

.subckt sky130_fd_sc_hd__a21oi_1 A1 A2 B1 VGND VNB VPB VPWR Y
X0 a_199_47# A1 Y VNB sky130_fd_pr__nfet_01v8 ad=0.09588 pd=0.945 as=0.091 ps=0.93 w=0.65 l=0.15
X1 a_113_297# A2 VPWR VPB sky130_fd_pr__pfet_01v8_hvt ad=0.265 pd=2.53 as=0.1475 ps=1.295 w=1 l=0.15
X2 Y B1 VGND VNB sky130_fd_pr__nfet_01v8 ad=0.091 pd=0.93 as=0.17225 ps=1.83 w=0.65 l=0.15
X3 VPWR A1 a_113_297# VPB sky130_fd_pr__pfet_01v8_hvt ad=0.1475 pd=1.295 as=0.14 ps=1.28 w=1 l=0.15
X4 a_113_297# B1 Y VPB sky130_fd_pr__pfet_01v8_hvt ad=0.14 pd=1.28 as=0.265 ps=2.53 w=1 l=0.15
X5 VGND A2 a_199_47# VNB sky130_fd_pr__nfet_01v8 ad=0.17225 pd=1.83 as=0.09588 ps=0.945 w=0.65 l=0.15
.ends

.subckt sky130_fd_sc_hd__o41ai_1 A1 A2 A3 A4 B1 VGND VNB VPB VPWR Y
X0 a_348_297# A3 a_193_297# VPB sky130_fd_pr__pfet_01v8_hvt ad=0.135 pd=1.27 as=0.3125 ps=1.625 w=1 l=0.15
X1 a_109_47# A1 VGND VNB sky130_fd_pr__nfet_01v8 ad=0.182 pd=1.86 as=0.11375 ps=1 w=0.65 l=0.15
X2 a_193_297# A4 Y VPB sky130_fd_pr__pfet_01v8_hvt ad=0.3125 pd=1.625 as=0.135 ps=1.27 w=1 l=0.15
X3 VPWR A1 a_432_297# VPB sky130_fd_pr__pfet_01v8_hvt ad=0.28 pd=2.56 as=0.175 ps=1.35 w=1 l=0.15
X4 VGND A4 a_109_47# VNB sky130_fd_pr__nfet_01v8 ad=0.08775 pd=0.92 as=0.20312 ps=1.275 w=0.65 l=0.15
X5 VGND A2 a_109_47# VNB sky130_fd_pr__nfet_01v8 ad=0.11375 pd=1 as=0.08775 ps=0.92 w=0.65 l=0.15
X6 a_109_47# A3 VGND VNB sky130_fd_pr__nfet_01v8 ad=0.08775 pd=0.92 as=0.08775 ps=0.92 w=0.65 l=0.15
X7 a_432_297# A2 a_348_297# VPB sky130_fd_pr__pfet_01v8_hvt ad=0.175 pd=1.35 as=0.135 ps=1.27 w=1 l=0.15
X8 Y B1 VPWR VPB sky130_fd_pr__pfet_01v8_hvt ad=0.135 pd=1.27 as=0.26 ps=2.52 w=1 l=0.15
X9 a_109_47# B1 Y VNB sky130_fd_pr__nfet_01v8 ad=0.20312 pd=1.275 as=0.169 ps=1.82 w=0.65 l=0.15
.ends

.subckt sky130_fd_sc_hd__decap_4 VGND VNB VPB VPWR
X0 VPWR VGND VPWR VPB sky130_fd_pr__pfet_01v8_hvt ad=0.2262 pd=2.26 as=0.4524 ps=4.52 w=0.87 l=1.05
X1 VGND VPWR VGND VNB sky130_fd_pr__nfet_01v8 ad=0.143 pd=1.62 as=0.286 ps=3.24 w=0.55 l=1.05
.ends

.subckt sky130_fd_sc_hd__dlygate4sd3_1 A VGND VNB VPB VPWR X
X0 VPWR A a_49_47# VPB sky130_fd_pr__pfet_01v8_hvt ad=0.0567 pd=0.69 as=0.1092 ps=1.36 w=0.42 l=0.15
X1 VGND a_285_47# a_391_47# VNB sky130_fd_pr__nfet_01v8 ad=0.097 pd=0.975 as=0.1092 ps=1.36 w=0.42 l=0.5
X2 X a_391_47# VPWR VPB sky130_fd_pr__pfet_01v8_hvt ad=0.26 pd=2.52 as=0.14075 ps=1.325 w=1 l=0.15
X3 VGND A a_49_47# VNB sky130_fd_pr__nfet_01v8 ad=0.0567 pd=0.69 as=0.1092 ps=1.36 w=0.42 l=0.15
X4 VPWR a_285_47# a_391_47# VPB sky130_fd_pr__pfet_01v8_hvt ad=0.14075 pd=1.325 as=0.1092 ps=1.36 w=0.42 l=0.5
X5 a_285_47# a_49_47# VGND VNB sky130_fd_pr__nfet_01v8 ad=0.1092 pd=1.36 as=0.0567 ps=0.69 w=0.42 l=0.5
X6 a_285_47# a_49_47# VPWR VPB sky130_fd_pr__pfet_01v8_hvt ad=0.1092 pd=1.36 as=0.0567 ps=0.69 w=0.42 l=0.5
X7 X a_391_47# VGND VNB sky130_fd_pr__nfet_01v8 ad=0.169 pd=1.82 as=0.097 ps=0.975 w=0.65 l=0.15
.ends

.subckt sky130_fd_sc_hd__decap_12 VGND VNB VPB VPWR
X0 VPWR VGND VPWR VPB sky130_fd_pr__pfet_01v8_hvt ad=0.2262 pd=2.26 as=0.4524 ps=4.52 w=0.87 l=4.73
X1 VGND VPWR VGND VNB sky130_fd_pr__nfet_01v8 ad=0.143 pd=1.62 as=0.286 ps=3.24 w=0.55 l=4.73
.ends

.subckt sky130_fd_sc_hd__decap_3 VGND VNB VPB VPWR
X0 VPWR VGND VPWR VPB sky130_fd_pr__pfet_01v8_hvt ad=0.2262 pd=2.26 as=0.4524 ps=4.52 w=0.87 l=0.59
X1 VGND VPWR VGND VNB sky130_fd_pr__nfet_01v8 ad=0.143 pd=1.62 as=0.286 ps=3.24 w=0.55 l=0.59
.ends

.subckt sky130_fd_sc_hd__o21ai_0 A1 A2 B1 VGND VNB VPB VPWR Y
X0 a_120_369# A1 VPWR VPB sky130_fd_pr__pfet_01v8_hvt ad=0.0768 pd=0.88 as=0.1696 ps=1.81 w=0.64 l=0.15
X1 VGND A1 a_32_47# VNB sky130_fd_pr__nfet_01v8 ad=0.0588 pd=0.7 as=0.1113 ps=1.37 w=0.42 l=0.15
X2 Y A2 a_120_369# VPB sky130_fd_pr__pfet_01v8_hvt ad=0.0896 pd=0.92 as=0.0768 ps=0.88 w=0.64 l=0.15
X3 a_32_47# A2 VGND VNB sky130_fd_pr__nfet_01v8 ad=0.0588 pd=0.7 as=0.0588 ps=0.7 w=0.42 l=0.15
X4 VPWR B1 Y VPB sky130_fd_pr__pfet_01v8_hvt ad=0.1824 pd=1.85 as=0.0896 ps=0.92 w=0.64 l=0.15
X5 Y B1 a_32_47# VNB sky130_fd_pr__nfet_01v8 ad=0.1113 pd=1.37 as=0.0588 ps=0.7 w=0.42 l=0.15
.ends

.subckt sky130_fd_sc_hd__o211a_1 A1 A2 B1 C1 VGND VNB VPB VPWR X
X0 VGND A1 a_215_47# VNB sky130_fd_pr__nfet_01v8 ad=0.10563 pd=0.975 as=0.169 ps=1.82 w=0.65 l=0.15
X1 a_510_47# B1 a_215_47# VNB sky130_fd_pr__nfet_01v8 ad=0.11375 pd=1 as=0.143 ps=1.09 w=0.65 l=0.15
X2 a_79_21# C1 VPWR VPB sky130_fd_pr__pfet_01v8_hvt ad=0.3 pd=2.6 as=0.175 ps=1.35 w=1 l=0.15
X3 VPWR B1 a_79_21# VPB sky130_fd_pr__pfet_01v8_hvt ad=0.175 pd=1.35 as=0.22 ps=1.44 w=1 l=0.15
X4 a_79_21# A2 a_297_297# VPB sky130_fd_pr__pfet_01v8_hvt ad=0.22 pd=1.44 as=0.1625 ps=1.325 w=1 l=0.15
X5 a_297_297# A1 VPWR VPB sky130_fd_pr__pfet_01v8_hvt ad=0.1625 pd=1.325 as=0.26 ps=2.52 w=1 l=0.15
X6 a_79_21# C1 a_510_47# VNB sky130_fd_pr__nfet_01v8 ad=0.195 pd=1.9 as=0.11375 ps=1 w=0.65 l=0.15
X7 VPWR a_79_21# X VPB sky130_fd_pr__pfet_01v8_hvt ad=0.26 pd=2.52 as=0.26 ps=2.52 w=1 l=0.15
X8 VGND a_79_21# X VNB sky130_fd_pr__nfet_01v8 ad=0.169 pd=1.82 as=0.169 ps=1.82 w=0.65 l=0.15
X9 a_215_47# A2 VGND VNB sky130_fd_pr__nfet_01v8 ad=0.143 pd=1.09 as=0.10563 ps=0.975 w=0.65 l=0.15
.ends

.subckt sky130_fd_sc_hd__clkdlybuf4s50_1 A VGND VNB VPB VPWR X
X0 a_283_47# a_27_47# VPWR VPB sky130_fd_pr__pfet_01v8_hvt ad=0.2173 pd=2.17 as=0.1701 ps=1.36 w=0.82 l=0.5
X1 VPWR A a_27_47# VPB sky130_fd_pr__pfet_01v8_hvt ad=0.1701 pd=1.36 as=0.27 ps=2.54 w=1 l=0.15
X2 VPWR a_283_47# a_390_47# VPB sky130_fd_pr__pfet_01v8_hvt ad=0.15575 pd=1.325 as=0.2173 ps=2.17 w=0.82 l=0.5
X3 VGND a_283_47# a_390_47# VNB sky130_fd_pr__nfet_01v8 ad=0.097 pd=0.975 as=0.17225 ps=1.83 w=0.65 l=0.5
X4 X a_390_47# VPWR VPB sky130_fd_pr__pfet_01v8_hvt ad=0.355 pd=2.71 as=0.15575 ps=1.325 w=1 l=0.15
X5 VGND A a_27_47# VNB sky130_fd_pr__nfet_01v8 ad=0.10435 pd=1.01 as=0.1134 ps=1.38 w=0.42 l=0.15
X6 a_283_47# a_27_47# VGND VNB sky130_fd_pr__nfet_01v8 ad=0.169 pd=1.82 as=0.10435 ps=1.01 w=0.65 l=0.5
X7 X a_390_47# VGND VNB sky130_fd_pr__nfet_01v8 ad=0.1491 pd=1.55 as=0.097 ps=0.975 w=0.42 l=0.15
.ends

.subckt sky130_fd_sc_hd__o22a_1 A1 A2 B1 B2 VGND VNB VPB VPWR X
X0 a_78_199# B1 a_215_47# VNB sky130_fd_pr__nfet_01v8 ad=0.08775 pd=0.92 as=0.169 ps=1.82 w=0.65 l=0.15
X1 VPWR A1 a_493_297# VPB sky130_fd_pr__pfet_01v8_hvt ad=0.26 pd=2.52 as=0.105 ps=1.21 w=1 l=0.15
X2 a_493_297# A2 a_78_199# VPB sky130_fd_pr__pfet_01v8_hvt ad=0.105 pd=1.21 as=0.235 ps=1.47 w=1 l=0.15
X3 VPWR a_78_199# X VPB sky130_fd_pr__pfet_01v8_hvt ad=0.3725 pd=1.745 as=0.28 ps=2.56 w=1 l=0.15
X4 VGND A2 a_215_47# VNB sky130_fd_pr__nfet_01v8 ad=0.08775 pd=0.92 as=0.11375 ps=1 w=0.65 l=0.15
X5 a_78_199# B2 a_292_297# VPB sky130_fd_pr__pfet_01v8_hvt ad=0.235 pd=1.47 as=0.1175 ps=1.235 w=1 l=0.15
X6 a_215_47# A1 VGND VNB sky130_fd_pr__nfet_01v8 ad=0.169 pd=1.82 as=0.08775 ps=0.92 w=0.65 l=0.15
X7 a_215_47# B2 a_78_199# VNB sky130_fd_pr__nfet_01v8 ad=0.11375 pd=1 as=0.08775 ps=0.92 w=0.65 l=0.15
X8 a_292_297# B1 VPWR VPB sky130_fd_pr__pfet_01v8_hvt ad=0.1175 pd=1.235 as=0.3725 ps=1.745 w=1 l=0.15
X9 VGND a_78_199# X VNB sky130_fd_pr__nfet_01v8 ad=0.169 pd=1.82 as=0.169 ps=1.82 w=0.65 l=0.15
.ends

.subckt sky130_fd_sc_hd__maj3_1 A B C VGND VNB VPB VPWR X
X0 X a_27_47# VGND VNB sky130_fd_pr__nfet_01v8 ad=0.23725 pd=2.03 as=0.1474 ps=1.215 w=0.65 l=0.15
X1 X a_27_47# VPWR VPB sky130_fd_pr__pfet_01v8_hvt ad=0.365 pd=2.73 as=0.2492 ps=1.565 w=1 l=0.15
X2 a_109_341# C a_27_47# VPB sky130_fd_pr__pfet_01v8_hvt ad=0.0441 pd=0.63 as=0.1092 ps=1.36 w=0.42 l=0.15
X3 a_27_47# B a_265_341# VPB sky130_fd_pr__pfet_01v8_hvt ad=0.0567 pd=0.69 as=0.0441 ps=0.63 w=0.42 l=0.15
X4 VGND A a_109_47# VNB sky130_fd_pr__nfet_01v8 ad=0.0567 pd=0.69 as=0.0441 ps=0.63 w=0.42 l=0.15
X5 a_265_341# A VPWR VPB sky130_fd_pr__pfet_01v8_hvt ad=0.0441 pd=0.63 as=0.0567 ps=0.69 w=0.42 l=0.15
X6 VPWR A a_109_341# VPB sky130_fd_pr__pfet_01v8_hvt ad=0.0567 pd=0.69 as=0.0441 ps=0.63 w=0.42 l=0.15
X7 a_421_47# B a_27_47# VNB sky130_fd_pr__nfet_01v8 ad=0.0441 pd=0.63 as=0.0567 ps=0.69 w=0.42 l=0.15
X8 a_265_47# A VGND VNB sky130_fd_pr__nfet_01v8 ad=0.0441 pd=0.63 as=0.0567 ps=0.69 w=0.42 l=0.15
X9 VGND C a_421_47# VNB sky130_fd_pr__nfet_01v8 ad=0.1474 pd=1.215 as=0.0441 ps=0.63 w=0.42 l=0.15
X10 a_27_47# B a_265_47# VNB sky130_fd_pr__nfet_01v8 ad=0.0567 pd=0.69 as=0.0441 ps=0.63 w=0.42 l=0.15
X11 VPWR C a_421_341# VPB sky130_fd_pr__pfet_01v8_hvt ad=0.2492 pd=1.565 as=0.0441 ps=0.63 w=0.42 l=0.15
X12 a_421_341# B a_27_47# VPB sky130_fd_pr__pfet_01v8_hvt ad=0.0441 pd=0.63 as=0.0567 ps=0.69 w=0.42 l=0.15
X13 a_109_47# C a_27_47# VNB sky130_fd_pr__nfet_01v8 ad=0.0441 pd=0.63 as=0.1092 ps=1.36 w=0.42 l=0.15
.ends

.subckt sky130_fd_sc_hd__dfrtp_1 CLK D RESET_B VGND VNB VPB VPWR Q
X0 a_805_47# a_761_289# a_639_47# VNB sky130_fd_pr__nfet_01v8 ad=0.0441 pd=0.63 as=0.1401 ps=1.1 w=0.42 l=0.15
X1 a_1217_47# a_27_47# a_1108_47# VNB sky130_fd_pr__special_nfet_01v8 ad=0.0669 pd=0.75 as=0.0711 ps=0.755 w=0.36 l=0.15
X2 a_1283_21# a_1108_47# a_1462_47# VNB sky130_fd_pr__nfet_01v8 ad=0.1092 pd=1.36 as=0.06405 ps=0.725 w=0.42 l=0.15
X3 a_651_413# a_27_47# a_543_47# VPB sky130_fd_pr__pfet_01v8_hvt ad=0.1155 pd=0.97 as=0.07245 ps=0.765 w=0.42 l=0.15
X4 a_1108_47# a_193_47# a_761_289# VNB sky130_fd_pr__special_nfet_01v8 ad=0.0711 pd=0.755 as=0.0999 ps=0.985 w=0.36 l=0.15
X5 VGND RESET_B a_805_47# VNB sky130_fd_pr__nfet_01v8 ad=0.1346 pd=1.15 as=0.0441 ps=0.63 w=0.42 l=0.15
X6 Q a_1283_21# VPWR VPB sky130_fd_pr__pfet_01v8_hvt ad=0.26 pd=2.52 as=0.3012 ps=2.66 w=1 l=0.15
X7 VPWR CLK a_27_47# VPB sky130_fd_pr__pfet_01v8_hvt ad=0.0864 pd=0.91 as=0.1664 ps=1.8 w=0.64 l=0.15
X8 a_448_47# D VPWR VPB sky130_fd_pr__pfet_01v8_hvt ad=0.0651 pd=0.73 as=0.1092 ps=1.36 w=0.42 l=0.15
X9 a_761_289# a_543_47# VGND VNB sky130_fd_pr__nfet_01v8 ad=0.0999 pd=0.985 as=0.1346 ps=1.15 w=0.64 l=0.15
X10 a_193_47# a_27_47# VGND VNB sky130_fd_pr__nfet_01v8 ad=0.1092 pd=1.36 as=0.0567 ps=0.69 w=0.42 l=0.15
X11 a_1108_47# a_27_47# a_761_289# VPB sky130_fd_pr__pfet_01v8_hvt ad=0.0588 pd=0.7 as=0.12915 ps=1.185 w=0.42 l=0.15
X12 a_1462_47# RESET_B VGND VNB sky130_fd_pr__nfet_01v8 ad=0.06405 pd=0.725 as=0.12495 ps=1.015 w=0.42 l=0.15
X13 a_543_47# a_27_47# a_448_47# VNB sky130_fd_pr__special_nfet_01v8 ad=0.0594 pd=0.69 as=0.066 ps=0.745 w=0.36 l=0.15
X14 a_543_47# a_193_47# a_448_47# VPB sky130_fd_pr__pfet_01v8_hvt ad=0.07245 pd=0.765 as=0.0651 ps=0.73 w=0.42 l=0.15
X15 a_448_47# D VGND VNB sky130_fd_pr__nfet_01v8 ad=0.066 pd=0.745 as=0.2205 ps=1.89 w=0.42 l=0.15
X16 VPWR a_1283_21# a_1270_413# VPB sky130_fd_pr__pfet_01v8_hvt ad=0.0819 pd=0.81 as=0.0567 ps=0.69 w=0.42 l=0.15
X17 VPWR a_1108_47# a_1283_21# VPB sky130_fd_pr__pfet_01v8_hvt ad=0.1134 pd=1.38 as=0.0567 ps=0.69 w=0.42 l=0.15
X18 a_1270_413# a_193_47# a_1108_47# VPB sky130_fd_pr__pfet_01v8_hvt ad=0.0567 pd=0.69 as=0.0588 ps=0.7 w=0.42 l=0.15
X19 a_193_47# a_27_47# VPWR VPB sky130_fd_pr__pfet_01v8_hvt ad=0.1664 pd=1.8 as=0.0864 ps=0.91 w=0.64 l=0.15
X20 a_1283_21# RESET_B VPWR VPB sky130_fd_pr__pfet_01v8_hvt ad=0.0567 pd=0.69 as=0.0819 ps=0.81 w=0.42 l=0.15
X21 VPWR a_761_289# a_651_413# VPB sky130_fd_pr__pfet_01v8_hvt ad=0.07035 pd=0.755 as=0.1155 ps=0.97 w=0.42 l=0.15
X22 Q a_1283_21# VGND VNB sky130_fd_pr__nfet_01v8 ad=0.169 pd=1.82 as=0.2087 ps=2.02 w=0.65 l=0.15
X23 a_639_47# a_193_47# a_543_47# VNB sky130_fd_pr__special_nfet_01v8 ad=0.1401 pd=1.1 as=0.0594 ps=0.69 w=0.36 l=0.15
X24 VGND a_1283_21# a_1217_47# VNB sky130_fd_pr__nfet_01v8 ad=0.12495 pd=1.015 as=0.0669 ps=0.75 w=0.42 l=0.15
X25 a_651_413# RESET_B VPWR VPB sky130_fd_pr__pfet_01v8_hvt ad=0.1092 pd=1.36 as=0.07035 ps=0.755 w=0.42 l=0.15
X26 VGND CLK a_27_47# VNB sky130_fd_pr__nfet_01v8 ad=0.0567 pd=0.69 as=0.1092 ps=1.36 w=0.42 l=0.15
X27 a_761_289# a_543_47# VPWR VPB sky130_fd_pr__pfet_01v8_hvt ad=0.12915 pd=1.185 as=0.2184 ps=2.2 w=0.84 l=0.15
.ends

.subckt sky130_fd_sc_hd__decap_6 VGND VNB VPB VPWR
X0 VPWR VGND VPWR VPB sky130_fd_pr__pfet_01v8_hvt ad=0.2262 pd=2.26 as=0.4524 ps=4.52 w=0.87 l=1.97
X1 VGND VPWR VGND VNB sky130_fd_pr__nfet_01v8 ad=0.143 pd=1.62 as=0.286 ps=3.24 w=0.55 l=1.97
.ends

.subckt sky130_fd_sc_hd__inv_1 A VGND VNB VPB VPWR Y
X0 Y A VGND VNB sky130_fd_pr__nfet_01v8 ad=0.169 pd=1.82 as=0.169 ps=1.82 w=0.65 l=0.15
X1 Y A VPWR VPB sky130_fd_pr__pfet_01v8_hvt ad=0.26 pd=2.52 as=0.26 ps=2.52 w=1 l=0.15
.ends

.subckt sky130_fd_sc_hd__xor2_1 A B VGND VNB VPB VPWR X
X0 X a_35_297# a_285_297# VPB sky130_fd_pr__pfet_01v8_hvt ad=0.3 pd=2.6 as=0.26 ps=2.52 w=1 l=0.15
X1 X B a_285_47# VNB sky130_fd_pr__nfet_01v8 ad=0.25025 pd=1.42 as=0.08775 ps=0.92 w=0.65 l=0.15
X2 a_35_297# B VGND VNB sky130_fd_pr__nfet_01v8 ad=0.08775 pd=0.92 as=0.169 ps=1.82 w=0.65 l=0.15
X3 a_117_297# B a_35_297# VPB sky130_fd_pr__pfet_01v8_hvt ad=0.135 pd=1.27 as=0.26 ps=2.52 w=1 l=0.15
X4 VPWR B a_285_297# VPB sky130_fd_pr__pfet_01v8_hvt ad=0.26 pd=2.52 as=0.135 ps=1.27 w=1 l=0.15
X5 VGND A a_35_297# VNB sky130_fd_pr__nfet_01v8 ad=0.08775 pd=0.92 as=0.08775 ps=0.92 w=0.65 l=0.15
X6 VGND a_35_297# X VNB sky130_fd_pr__nfet_01v8 ad=0.208 pd=1.94 as=0.25025 ps=1.42 w=0.65 l=0.15
X7 a_285_297# A VPWR VPB sky130_fd_pr__pfet_01v8_hvt ad=0.135 pd=1.27 as=0.135 ps=1.27 w=1 l=0.15
X8 VPWR A a_117_297# VPB sky130_fd_pr__pfet_01v8_hvt ad=0.135 pd=1.27 as=0.135 ps=1.27 w=1 l=0.15
X9 a_285_47# A VGND VNB sky130_fd_pr__nfet_01v8 ad=0.08775 pd=0.92 as=0.08775 ps=0.92 w=0.65 l=0.15
.ends

.subckt sky130_fd_sc_hd__nand2_1 A B VGND VNB VPB VPWR Y
X0 VPWR A Y VPB sky130_fd_pr__pfet_01v8_hvt ad=0.26 pd=2.52 as=0.135 ps=1.27 w=1 l=0.15
X1 Y A a_113_47# VNB sky130_fd_pr__nfet_01v8 ad=0.169 pd=1.82 as=0.08775 ps=0.92 w=0.65 l=0.15
X2 a_113_47# B VGND VNB sky130_fd_pr__nfet_01v8 ad=0.08775 pd=0.92 as=0.169 ps=1.82 w=0.65 l=0.15
X3 Y B VPWR VPB sky130_fd_pr__pfet_01v8_hvt ad=0.135 pd=1.27 as=0.26 ps=2.52 w=1 l=0.15
.ends

.subckt sky130_fd_sc_hd__dfstp_2 CLK D SET_B VGND VNB VPB VPWR Q
X0 VGND a_652_21# a_586_47# VNB sky130_fd_pr__nfet_01v8 ad=0.0882 pd=0.84 as=0.06705 ps=0.75 w=0.42 l=0.15
X1 a_956_413# a_476_47# VPWR VPB sky130_fd_pr__pfet_01v8_hvt ad=0.0441 pd=0.63 as=0.0567 ps=0.69 w=0.42 l=0.15
X2 a_1136_413# a_193_47# a_1028_413# VPB sky130_fd_pr__pfet_01v8_hvt ad=0.0441 pd=0.63 as=0.0819 ps=0.81 w=0.42 l=0.15
X3 VPWR a_476_47# a_652_21# VPB sky130_fd_pr__pfet_01v8_hvt ad=0.0567 pd=0.69 as=0.0567 ps=0.69 w=0.42 l=0.15
X4 a_1228_47# a_27_47# a_1028_413# VNB sky130_fd_pr__nfet_01v8 ad=0.0441 pd=0.63 as=0.0735 ps=0.77 w=0.42 l=0.15
X5 VPWR CLK a_27_47# VPB sky130_fd_pr__pfet_01v8_hvt ad=0.0864 pd=0.91 as=0.1664 ps=1.8 w=0.64 l=0.15
X6 a_586_47# a_193_47# a_476_47# VNB sky130_fd_pr__special_nfet_01v8 ad=0.06705 pd=0.75 as=0.072 ps=0.76 w=0.36 l=0.15
X7 a_1056_47# a_476_47# VGND VNB sky130_fd_pr__nfet_01v8 ad=0.0441 pd=0.63 as=0.1092 ps=1.36 w=0.42 l=0.15
X8 a_476_47# a_27_47# a_381_47# VNB sky130_fd_pr__special_nfet_01v8 ad=0.072 pd=0.76 as=0.0935 ps=0.965 w=0.36 l=0.15
X9 a_381_47# D VPWR VPB sky130_fd_pr__pfet_01v8_hvt ad=0.12495 pd=1.175 as=0.2184 ps=2.2 w=0.84 l=0.15
X10 a_652_21# SET_B VPWR VPB sky130_fd_pr__pfet_01v8_hvt ad=0.0567 pd=0.69 as=0.0798 ps=0.8 w=0.42 l=0.15
X11 VPWR a_1602_47# Q VPB sky130_fd_pr__pfet_01v8_hvt ad=0.26 pd=2.52 as=0.135 ps=1.27 w=1 l=0.15
X12 a_562_413# a_27_47# a_476_47# VPB sky130_fd_pr__pfet_01v8_hvt ad=0.0945 pd=0.87 as=0.0567 ps=0.69 w=0.42 l=0.15
X13 VGND a_1028_413# a_1602_47# VNB sky130_fd_pr__nfet_01v8 ad=0.08775 pd=0.92 as=0.169 ps=1.82 w=0.65 l=0.15
X14 VGND a_1602_47# Q VNB sky130_fd_pr__nfet_01v8 ad=0.169 pd=1.82 as=0.08775 ps=0.92 w=0.65 l=0.15
X15 Q a_1602_47# VPWR VPB sky130_fd_pr__pfet_01v8_hvt ad=0.135 pd=1.27 as=0.135 ps=1.27 w=1 l=0.15
X16 a_1028_413# a_193_47# a_1056_47# VNB sky130_fd_pr__nfet_01v8 ad=0.0735 pd=0.77 as=0.0441 ps=0.63 w=0.42 l=0.15
X17 a_476_47# a_193_47# a_381_47# VPB sky130_fd_pr__pfet_01v8_hvt ad=0.0567 pd=0.69 as=0.12495 ps=1.175 w=0.42 l=0.15
X18 a_193_47# a_27_47# VGND VNB sky130_fd_pr__nfet_01v8 ad=0.1092 pd=1.36 as=0.0567 ps=0.69 w=0.42 l=0.15
X19 VPWR a_1028_413# a_1602_47# VPB sky130_fd_pr__pfet_01v8_hvt ad=0.135 pd=1.27 as=0.26 ps=2.52 w=1 l=0.15
X20 VPWR a_652_21# a_562_413# VPB sky130_fd_pr__pfet_01v8_hvt ad=0.0798 pd=0.8 as=0.0945 ps=0.87 w=0.42 l=0.15
X21 Q a_1602_47# VGND VNB sky130_fd_pr__nfet_01v8 ad=0.08775 pd=0.92 as=0.08775 ps=0.92 w=0.65 l=0.15
X22 a_1028_413# a_27_47# a_956_413# VPB sky130_fd_pr__pfet_01v8_hvt ad=0.0819 pd=0.81 as=0.0441 ps=0.63 w=0.42 l=0.15
X23 VPWR a_1178_261# a_1136_413# VPB sky130_fd_pr__pfet_01v8_hvt ad=0.1092 pd=1.36 as=0.0441 ps=0.63 w=0.42 l=0.15
X24 a_193_47# a_27_47# VPWR VPB sky130_fd_pr__pfet_01v8_hvt ad=0.1664 pd=1.8 as=0.0864 ps=0.91 w=0.64 l=0.15
X25 a_1178_261# a_1028_413# VPWR VPB sky130_fd_pr__pfet_01v8_hvt ad=0.2226 pd=2.21 as=0.12075 ps=1.165 w=0.84 l=0.15
X26 a_796_47# SET_B VGND VNB sky130_fd_pr__nfet_01v8 ad=0.0441 pd=0.63 as=0.0882 ps=0.84 w=0.42 l=0.15
X27 a_1300_47# a_1178_261# a_1228_47# VNB sky130_fd_pr__nfet_01v8 ad=0.0441 pd=0.63 as=0.0441 ps=0.63 w=0.42 l=0.15
X28 a_381_47# D VGND VNB sky130_fd_pr__nfet_01v8 ad=0.0935 pd=0.965 as=0.1664 ps=1.8 w=0.64 l=0.15
X29 a_1178_261# a_1028_413# VGND VNB sky130_fd_pr__nfet_01v8 ad=0.1404 pd=1.6 as=0.1137 ps=1.01 w=0.54 l=0.15
X30 a_652_21# a_476_47# a_796_47# VNB sky130_fd_pr__nfet_01v8 ad=0.1092 pd=1.36 as=0.0441 ps=0.63 w=0.42 l=0.15
X31 VPWR SET_B a_1028_413# VPB sky130_fd_pr__pfet_01v8_hvt ad=0.12075 pd=1.165 as=0.1092 ps=1.36 w=0.42 l=0.15
X32 VGND CLK a_27_47# VNB sky130_fd_pr__nfet_01v8 ad=0.0567 pd=0.69 as=0.1092 ps=1.36 w=0.42 l=0.15
X33 VGND SET_B a_1300_47# VNB sky130_fd_pr__nfet_01v8 ad=0.1137 pd=1.01 as=0.0441 ps=0.63 w=0.42 l=0.15
.ends

.subckt sky130_fd_sc_hd__a21boi_0 A1 A2 B1_N VGND VNB VPB VPWR Y
X0 a_300_369# A2 VPWR VPB sky130_fd_pr__pfet_01v8_hvt ad=0.1696 pd=1.81 as=0.0896 ps=0.92 w=0.64 l=0.15
X1 a_400_47# A1 Y VNB sky130_fd_pr__nfet_01v8 ad=0.0441 pd=0.63 as=0.1113 ps=0.95 w=0.42 l=0.15
X2 VGND A2 a_400_47# VNB sky130_fd_pr__nfet_01v8 ad=0.1113 pd=1.37 as=0.0441 ps=0.63 w=0.42 l=0.15
X3 VGND B1_N a_27_47# VNB sky130_fd_pr__nfet_01v8 ad=0.1302 pd=1.04 as=0.1113 ps=1.37 w=0.42 l=0.15
X4 VPWR B1_N a_27_47# VPB sky130_fd_pr__pfet_01v8_hvt ad=0.1113 pd=1.37 as=0.1113 ps=1.37 w=0.42 l=0.15
X5 Y a_27_47# VGND VNB sky130_fd_pr__nfet_01v8 ad=0.1113 pd=0.95 as=0.1302 ps=1.04 w=0.42 l=0.15
X6 a_300_369# a_27_47# Y VPB sky130_fd_pr__pfet_01v8_hvt ad=0.0896 pd=0.92 as=0.1696 ps=1.81 w=0.64 l=0.15
X7 VPWR A1 a_300_369# VPB sky130_fd_pr__pfet_01v8_hvt ad=0.0896 pd=0.92 as=0.0896 ps=0.92 w=0.64 l=0.15
.ends

.subckt sky130_fd_sc_hd__o32a_1 A1 A2 A3 B1 B2 VGND VNB VPB VPWR X
X0 a_77_199# B2 a_227_47# VNB sky130_fd_pr__nfet_01v8 ad=0.13325 pd=1.06 as=0.12675 ps=1.04 w=0.65 l=0.15
X1 a_323_297# A2 a_227_297# VPB sky130_fd_pr__pfet_01v8_hvt ad=0.195 pd=1.39 as=0.165 ps=1.33 w=1 l=0.15
X2 a_227_297# A1 VPWR VPB sky130_fd_pr__pfet_01v8_hvt ad=0.165 pd=1.33 as=0.135 ps=1.27 w=1 l=0.15
X3 a_227_47# B1 a_77_199# VNB sky130_fd_pr__nfet_01v8 ad=0.1885 pd=1.88 as=0.13325 ps=1.06 w=0.65 l=0.15
X4 VGND a_77_199# X VNB sky130_fd_pr__nfet_01v8 ad=0.08775 pd=0.92 as=0.169 ps=1.82 w=0.65 l=0.15
X5 VPWR B1 a_539_297# VPB sky130_fd_pr__pfet_01v8_hvt ad=0.29 pd=2.58 as=0.205 ps=1.41 w=1 l=0.15
X6 a_227_47# A3 VGND VNB sky130_fd_pr__nfet_01v8 ad=0.12675 pd=1.04 as=0.12675 ps=1.04 w=0.65 l=0.15
X7 VPWR a_77_199# X VPB sky130_fd_pr__pfet_01v8_hvt ad=0.135 pd=1.27 as=0.335 ps=2.67 w=1 l=0.15
X8 a_77_199# A3 a_323_297# VPB sky130_fd_pr__pfet_01v8_hvt ad=0.195 pd=1.39 as=0.195 ps=1.39 w=1 l=0.15
X9 VGND A2 a_227_47# VNB sky130_fd_pr__nfet_01v8 ad=0.12675 pd=1.04 as=0.10725 ps=0.98 w=0.65 l=0.15
X10 a_227_47# A1 VGND VNB sky130_fd_pr__nfet_01v8 ad=0.10725 pd=0.98 as=0.08775 ps=0.92 w=0.65 l=0.15
X11 a_539_297# B2 a_77_199# VPB sky130_fd_pr__pfet_01v8_hvt ad=0.205 pd=1.41 as=0.195 ps=1.39 w=1 l=0.15
.ends

.subckt sky130_fd_sc_hd__xnor2_1 A B VGND VNB VPB VPWR Y
X0 a_377_297# A VPWR VPB sky130_fd_pr__pfet_01v8_hvt ad=0.105 pd=1.21 as=0.365 ps=1.73 w=1 l=0.15
X1 a_47_47# B VPWR VPB sky130_fd_pr__pfet_01v8_hvt ad=0.135 pd=1.27 as=0.3 ps=2.6 w=1 l=0.15
X2 a_129_47# B a_47_47# VNB sky130_fd_pr__nfet_01v8 ad=0.06825 pd=0.86 as=0.169 ps=1.82 w=0.65 l=0.15
X3 a_285_47# B VGND VNB sky130_fd_pr__nfet_01v8 ad=0.08775 pd=0.92 as=0.169 ps=1.82 w=0.65 l=0.15
X4 Y a_47_47# a_285_47# VNB sky130_fd_pr__nfet_01v8 ad=0.195 pd=1.9 as=0.08775 ps=0.92 w=0.65 l=0.15
X5 VGND A a_129_47# VNB sky130_fd_pr__nfet_01v8 ad=0.08775 pd=0.92 as=0.06825 ps=0.86 w=0.65 l=0.15
X6 VPWR A a_47_47# VPB sky130_fd_pr__pfet_01v8_hvt ad=0.365 pd=1.73 as=0.135 ps=1.27 w=1 l=0.15
X7 VPWR a_47_47# Y VPB sky130_fd_pr__pfet_01v8_hvt ad=0.36 pd=2.72 as=0.165 ps=1.33 w=1 l=0.15
X8 Y B a_377_297# VPB sky130_fd_pr__pfet_01v8_hvt ad=0.165 pd=1.33 as=0.105 ps=1.21 w=1 l=0.15
X9 a_285_47# A VGND VNB sky130_fd_pr__nfet_01v8 ad=0.169 pd=1.82 as=0.08775 ps=0.92 w=0.65 l=0.15
.ends

.subckt sky130_fd_sc_hd__mux2_1 A0 A1 S VGND VNB VPB VPWR X
X0 VPWR a_505_21# a_535_374# VPB sky130_fd_pr__pfet_01v8_hvt ad=0.0693 pd=0.75 as=0.0441 ps=0.63 w=0.42 l=0.15
X1 a_505_21# S VPWR VPB sky130_fd_pr__pfet_01v8_hvt ad=0.1176 pd=1.4 as=0.0693 ps=0.75 w=0.42 l=0.15
X2 a_218_374# S VPWR VPB sky130_fd_pr__pfet_01v8_hvt ad=0.07665 pd=0.785 as=0.15835 ps=1.395 w=0.42 l=0.15
X3 VGND a_505_21# a_439_47# VNB sky130_fd_pr__nfet_01v8 ad=0.1449 pd=1.11 as=0.0693 ps=0.75 w=0.42 l=0.15
X4 a_76_199# A0 a_218_374# VPB sky130_fd_pr__pfet_01v8_hvt ad=0.1932 pd=1.34 as=0.07665 ps=0.785 w=0.42 l=0.15
X5 a_505_21# S VGND VNB sky130_fd_pr__nfet_01v8 ad=0.1092 pd=1.36 as=0.1449 ps=1.11 w=0.42 l=0.15
X6 a_439_47# A0 a_76_199# VNB sky130_fd_pr__nfet_01v8 ad=0.0693 pd=0.75 as=0.09975 ps=0.895 w=0.42 l=0.15
X7 a_535_374# A1 a_76_199# VPB sky130_fd_pr__pfet_01v8_hvt ad=0.0441 pd=0.63 as=0.1932 ps=1.34 w=0.42 l=0.15
X8 a_76_199# A1 a_218_47# VNB sky130_fd_pr__nfet_01v8 ad=0.09975 pd=0.895 as=0.0693 ps=0.75 w=0.42 l=0.15
X9 a_218_47# S VGND VNB sky130_fd_pr__nfet_01v8 ad=0.0693 pd=0.75 as=0.11285 ps=1.045 w=0.42 l=0.15
X10 VPWR a_76_199# X VPB sky130_fd_pr__pfet_01v8_hvt ad=0.15835 pd=1.395 as=0.26 ps=2.52 w=1 l=0.15
X11 VGND a_76_199# X VNB sky130_fd_pr__nfet_01v8 ad=0.11285 pd=1.045 as=0.169 ps=1.82 w=0.65 l=0.15
.ends

.subckt sky130_fd_sc_hd__nor2_1 A B VGND VNB VPB VPWR Y
X0 VPWR A a_109_297# VPB sky130_fd_pr__pfet_01v8_hvt ad=0.26 pd=2.52 as=0.105 ps=1.21 w=1 l=0.15
X1 VGND A Y VNB sky130_fd_pr__nfet_01v8 ad=0.169 pd=1.82 as=0.08775 ps=0.92 w=0.65 l=0.15
X2 a_109_297# B Y VPB sky130_fd_pr__pfet_01v8_hvt ad=0.105 pd=1.21 as=0.26 ps=2.52 w=1 l=0.15
X3 Y B VGND VNB sky130_fd_pr__nfet_01v8 ad=0.08775 pd=0.92 as=0.169 ps=1.82 w=0.65 l=0.15
.ends

.subckt sky130_fd_sc_hd__mux2i_1 A0 A1 S VGND VNB VPB VPWR Y
X0 a_27_297# S VPWR VPB sky130_fd_pr__pfet_01v8_hvt ad=0.26 pd=2.52 as=0.3 ps=1.6 w=1 l=0.15
X1 VGND S a_283_205# VNB sky130_fd_pr__nfet_01v8 ad=0.169 pd=1.82 as=0.169 ps=1.82 w=0.65 l=0.15
X2 a_204_297# A1 Y VPB sky130_fd_pr__pfet_01v8_hvt ad=0.1975 pd=1.395 as=0.1525 ps=1.305 w=1 l=0.15
X3 a_193_47# A1 Y VNB sky130_fd_pr__nfet_01v8 ad=0.182 pd=1.86 as=0.08775 ps=0.92 w=0.65 l=0.15
X4 Y A0 a_27_297# VPB sky130_fd_pr__pfet_01v8_hvt ad=0.1525 pd=1.305 as=0.28 ps=2.56 w=1 l=0.15
X5 VPWR a_283_205# a_204_297# VPB sky130_fd_pr__pfet_01v8_hvt ad=0.3 pd=1.6 as=0.1975 ps=1.395 w=1 l=0.15
X6 VPWR S a_283_205# VPB sky130_fd_pr__pfet_01v8_hvt ad=0.26 pd=2.52 as=0.29 ps=2.58 w=1 l=0.15
X7 VGND a_283_205# a_27_47# VNB sky130_fd_pr__nfet_01v8 ad=0.08775 pd=0.92 as=0.169 ps=1.82 w=0.65 l=0.15
X8 a_193_47# S VGND VNB sky130_fd_pr__nfet_01v8 ad=0.169 pd=1.82 as=0.08775 ps=0.92 w=0.65 l=0.15
X9 Y A0 a_27_47# VNB sky130_fd_pr__nfet_01v8 ad=0.08775 pd=0.92 as=0.169 ps=1.82 w=0.65 l=0.15
.ends

.subckt sky130_fd_sc_hd__nor3_1 A B C VGND VNB VPB VPWR Y
X0 VPWR A a_193_297# VPB sky130_fd_pr__pfet_01v8_hvt ad=0.26 pd=2.52 as=0.135 ps=1.27 w=1 l=0.15
X1 a_193_297# B a_109_297# VPB sky130_fd_pr__pfet_01v8_hvt ad=0.135 pd=1.27 as=0.135 ps=1.27 w=1 l=0.15
X2 Y B VGND VNB sky130_fd_pr__nfet_01v8 ad=0.08775 pd=0.92 as=0.08775 ps=0.92 w=0.65 l=0.15
X3 VGND A Y VNB sky130_fd_pr__nfet_01v8 ad=0.169 pd=1.82 as=0.08775 ps=0.92 w=0.65 l=0.15
X4 a_109_297# C Y VPB sky130_fd_pr__pfet_01v8_hvt ad=0.135 pd=1.27 as=0.26 ps=2.52 w=1 l=0.15
X5 VGND C Y VNB sky130_fd_pr__nfet_01v8 ad=0.08775 pd=0.92 as=0.169 ps=1.82 w=0.65 l=0.15
.ends

.subckt sky130_fd_sc_hd__nor4_1 A B C D VGND VNB VPB VPWR Y
X0 Y B VGND VNB sky130_fd_pr__nfet_01v8 ad=0.08775 pd=0.92 as=0.08937 ps=0.925 w=0.65 l=0.15
X1 a_191_297# C a_109_297# VPB sky130_fd_pr__pfet_01v8_hvt ad=0.19 pd=1.38 as=0.13 ps=1.26 w=1 l=0.15
X2 VPWR A a_297_297# VPB sky130_fd_pr__pfet_01v8_hvt ad=0.26 pd=2.52 as=0.135 ps=1.27 w=1 l=0.15
X3 VGND C Y VNB sky130_fd_pr__nfet_01v8 ad=0.08937 pd=0.925 as=0.11863 ps=1.015 w=0.65 l=0.15
X4 VGND A Y VNB sky130_fd_pr__nfet_01v8 ad=0.169 pd=1.82 as=0.08775 ps=0.92 w=0.65 l=0.15
X5 a_297_297# B a_191_297# VPB sky130_fd_pr__pfet_01v8_hvt ad=0.135 pd=1.27 as=0.19 ps=1.38 w=1 l=0.15
X6 a_109_297# D Y VPB sky130_fd_pr__pfet_01v8_hvt ad=0.13 pd=1.26 as=0.26 ps=2.52 w=1 l=0.15
X7 Y D VGND VNB sky130_fd_pr__nfet_01v8 ad=0.11863 pd=1.015 as=0.169 ps=1.82 w=0.65 l=0.15
.ends

.subckt sky130_fd_sc_hd__nand3_1 A B C VGND VNB VPB VPWR Y
X0 VPWR B Y VPB sky130_fd_pr__pfet_01v8_hvt ad=0.165 pd=1.33 as=0.135 ps=1.27 w=1 l=0.15
X1 Y A VPWR VPB sky130_fd_pr__pfet_01v8_hvt ad=0.26 pd=2.52 as=0.165 ps=1.33 w=1 l=0.15
X2 a_193_47# B a_109_47# VNB sky130_fd_pr__nfet_01v8 ad=0.10725 pd=0.98 as=0.08775 ps=0.92 w=0.65 l=0.15
X3 Y A a_193_47# VNB sky130_fd_pr__nfet_01v8 ad=0.169 pd=1.82 as=0.10725 ps=0.98 w=0.65 l=0.15
X4 Y C VPWR VPB sky130_fd_pr__pfet_01v8_hvt ad=0.135 pd=1.27 as=0.26 ps=2.52 w=1 l=0.15
X5 a_109_47# C VGND VNB sky130_fd_pr__nfet_01v8 ad=0.08775 pd=0.92 as=0.169 ps=1.82 w=0.65 l=0.15
.ends

.subckt sky130_fd_sc_hd__a22o_1 A1 A2 B1 B2 VGND VNB VPB VPWR X